Program Version,EnergyPlus, Version 23.2.0-7636e6b3e9, YMD=2024.11.11 12:49
! This file shows details about the branches, nodes, and other
! elements of the flow connections.
! This file is intended for use in "debugging" potential problems
! that may also be detected by the program, but may be more easily
! identified by "eye".
! This file is also intended to support software which draws a
! schematic diagram of the HVAC system.
! ===============================================================
! #Nodes,<Number of Unique Nodes>
 #Nodes,41
! <Node>,<NodeNumber>,<Node Name>,<Node Fluid Type>,<# Times Node Referenced After Definition>
 Node,1,WHOLEHOUSE_879BD36E PTAC OUTLET AIR NODE,Air,3
 Node,2,WHOLEHOUSE_879BD36E PTAC INLET AIR NODE,Air,3
 Node,3,HOT WATER LOOP SUPPLY INLET NODE,Water,2
 Node,4,HOT WATER LOOP PUMP OUTLET WATER NODE,Water,1
 Node,5,BOILER INLET WATER NODE,Water,1
 Node,6,BOILER OUTLET WATER NODE,Water,1
 Node,7,HOT WATER LOOP SUPPLY EQUIPMENT BYPASS INLET WATER NODE,Water,1
 Node,8,HOT WATER LOOP SUPPLY EQUIPMENT BYPASS OUTLET WATER NODE,Water,1
 Node,9,HOT WATER LOOP SUPPLY OUTLET INLET WATER NODE,Water,1
 Node,10,HOT WATER LOOP SUPPLY OUTLET NODE,Water,4
 Node,11,HOT WATER LOOP DEMAND INLET NODE,Water,2
 Node,12,HOT WATER LOOP DEMAND INLET OUTLET WATER NODE,Water,1
 Node,13,HOT WATER LOOP COIL BYPASS INLET WATER NODE,Water,1
 Node,14,HOT WATER LOOP COIL BYPASS OUTLET WATER NODE,Water,1
 Node,15,HOT WATER LOOP WATER HTG COIL INLET WATER NODE,Water,1
 Node,16,HOT WATER LOOP WATER HTG COIL OUTLET WATER NODE,Water,1
 Node,17,HOT WATER LOOP DEMAND BYPASS PIPE INLET NODE,Water,1
 Node,18,HOT WATER LOOP DEMAND BYPASS PIPE OUTLET NODE,Water,1
 Node,19,HOT WATER LOOP DEMAND OUTLET INLET WATER NODE,Water,1
 Node,20,HOT WATER LOOP DEMAND OUTLET NODE,Water,2
 Node,21,NODE 1,Water,2
 Node,22,NODE 7,Water,1
 Node,23,NODE 3,Water,1
 Node,24,NODE 8,Water,1
 Node,25,SHW LOOP RV2024_GASHOTWATER SUPPLY OUTLET PIPE NODE,Water,1
 Node,26,NODE 2,Water,4
 Node,27,NODE 4,Water,2
 Node,28,SHW LOOP RV2024_GASHOTWATER DEMAND INLET PIPE NODE,Water,1
 Node,29,NODE 6,Water,1
 Node,30,NODE 9,Water,1
 Node,31,SHW LOOP RV2024_GASHOTWATER DEMAND BYPASS PIPE INLET NODE,Water,1
 Node,32,SHW LOOP RV2024_GASHOTWATER DEMAND BYPASS PIPE OUTLET NODE,Water,1
 Node,33,SHW LOOP RV2024_GASHOTWATER DEMAND OUTLET PIPE NODE,Water,1
 Node,34,NODE 5,Water,2
 Node,35,WHOLEHOUSE_879BD36E ZONE AIR NODE,Air,0
 Node,36,WHOLEHOUSE_879BD36E PTAC MIXED AIR NODE,Air,1
 Node,37,WHOLEHOUSE_879BD36E PTAC OA NODE,Air,1
 Node,38,WHOLEHOUSE_879BD36E PTAC RELIEF AIR NODE,Air,0
 Node,39,MODEL OUTDOOR AIR NODE,Air,0
 Node,40,WHOLEHOUSE_879BD36E PTAC HEATING COIL OUTLET NODE,Air,1
 Node,41,WHOLEHOUSE_879BD36E PTAC COOLING COIL OUTLET NODE,Air,1
! ===============================================================
! Suspicious nodes have 0 references.  It is normal for some nodes, however.
! Listing nodes with 0 references (culled from previous list):
! <Suspicious Node>,<NodeNumber>,<Node Name>,<Node Fluid Type>,<# Times Node Referenced After Definition>
 Suspicious Node,35,WHOLEHOUSE_879BD36E ZONE AIR NODE,Air,0
 Suspicious Node,38,WHOLEHOUSE_879BD36E PTAC RELIEF AIR NODE,Air,0
 Suspicious Node,39,MODEL OUTDOOR AIR NODE,Air,0
! ===============================================================
! <#Branch Lists>,<Number of Branch Lists>
 #Branch Lists,4
! <Branch List>,<Branch List Count>,<Branch List Name>,<Loop Name>,<Loop Type>,<Number of Branches>
! <Branch>,<Branch Count>,<Branch Name>,<Loop Name>,<Loop Type>,<Branch Inlet Node Name>,<Branch Outlet Node Name>
 Branch List,1,HOT WATER LOOP SUPPLY BRANCHES,HOT WATER LOOP,Plant Supply,4
   Branch,1,HOT WATER LOOP SUPPLY INLET BRANCH,HOT WATER LOOP,Plant Supply,HOT WATER LOOP SUPPLY INLET NODE,HOT WATER LOOP PUMP OUTLET WATER NODE
   Branch,2,HOT WATER LOOP SUPPLY BRANCH 1,HOT WATER LOOP,Plant Supply,BOILER INLET WATER NODE,BOILER OUTLET WATER NODE
   Branch,3,HOT WATER LOOP SUPPLY BRANCH 2,HOT WATER LOOP,Plant Supply,HOT WATER LOOP SUPPLY EQUIPMENT BYPASS INLET WATER NODE,HOT WATER LOOP SUPPLY EQUIPMENT BYPASS OUTLET WATER NODE
   Branch,4,HOT WATER LOOP SUPPLY OUTLET BRANCH,HOT WATER LOOP,Plant Supply,HOT WATER LOOP SUPPLY OUTLET INLET WATER NODE,HOT WATER LOOP SUPPLY OUTLET NODE
 Branch List,2,HOT WATER LOOP DEMAND BRANCHES,HOT WATER LOOP,Plant Demand,5
   Branch,1,HOT WATER LOOP DEMAND INLET BRANCH,HOT WATER LOOP,Plant Demand,HOT WATER LOOP DEMAND INLET NODE,HOT WATER LOOP DEMAND INLET OUTLET WATER NODE
   Branch,2,HOT WATER LOOP DEMAND BRANCH 1,HOT WATER LOOP,Plant Demand,HOT WATER LOOP COIL BYPASS INLET WATER NODE,HOT WATER LOOP COIL BYPASS OUTLET WATER NODE
   Branch,3,HOT WATER LOOP DEMAND BRANCH 2,HOT WATER LOOP,Plant Demand,HOT WATER LOOP WATER HTG COIL INLET WATER NODE,HOT WATER LOOP WATER HTG COIL OUTLET WATER NODE
   Branch,4,HOT WATER LOOP DEMAND BYPASS BRANCH,HOT WATER LOOP,Plant Demand,HOT WATER LOOP DEMAND BYPASS PIPE INLET NODE,HOT WATER LOOP DEMAND BYPASS PIPE OUTLET NODE
   Branch,5,HOT WATER LOOP DEMAND OUTLET BRANCH,HOT WATER LOOP,Plant Demand,HOT WATER LOOP DEMAND OUTLET INLET WATER NODE,HOT WATER LOOP DEMAND OUTLET NODE
 Branch List,3,SHW LOOP RV2024_GASHOTWATER SUPPLY BRANCHES,SHW LOOP RV2024_GASHOTWATER,Plant Supply,3
   Branch,1,SHW LOOP RV2024_GASHOTWATER SUPPLY INLET BRANCH,SHW LOOP RV2024_GASHOTWATER,Plant Supply,NODE 1,NODE 7
   Branch,2,SHW LOOP RV2024_GASHOTWATER SUPPLY BRANCH 1,SHW LOOP RV2024_GASHOTWATER,Plant Supply,NODE 3,NODE 8
   Branch,3,SHW LOOP RV2024_GASHOTWATER SUPPLY OUTLET BRANCH,SHW LOOP RV2024_GASHOTWATER,Plant Supply,SHW LOOP RV2024_GASHOTWATER SUPPLY OUTLET PIPE NODE,NODE 2
 Branch List,4,SHW LOOP RV2024_GASHOTWATER DEMAND BRANCHES,SHW LOOP RV2024_GASHOTWATER,Plant Demand,4
   Branch,1,SHW LOOP RV2024_GASHOTWATER DEMAND INLET BRANCH,SHW LOOP RV2024_GASHOTWATER,Plant Demand,NODE 4,SHW LOOP RV2024_GASHOTWATER DEMAND INLET PIPE NODE
   Branch,2,SHW LOOP RV2024_GASHOTWATER DEMAND BRANCH 1,SHW LOOP RV2024_GASHOTWATER,Plant Demand,NODE 6,NODE 9
   Branch,3,SHW LOOP RV2024_GASHOTWATER DEMAND BYPASS BRANCH,SHW LOOP RV2024_GASHOTWATER,Plant Demand,SHW LOOP RV2024_GASHOTWATER DEMAND BYPASS PIPE INLET NODE,SHW LOOP RV2024_GASHOTWATER DEMAND BYPASS PIPE OUTLET NODE
   Branch,4,SHW LOOP RV2024_GASHOTWATER DEMAND OUTLET BRANCH,SHW LOOP RV2024_GASHOTWATER,Plant Demand,SHW LOOP RV2024_GASHOTWATER DEMAND OUTLET PIPE NODE,NODE 5
! ===============================================================
! <#Supply Air Paths>,<Number of Supply Air Paths>
 #Supply Air Paths,0
! <Supply Air Path>,<Supply Air Path Count>,<Supply Air Path Name>,<AirLoopHVAC Name>
! <#Components on Supply Air Path>,<Number of Components>
! <Supply Air Path Component>,<Component Count>,<Component Type>,<Component Name>,<AirLoopHVAC Name>
! <#Outlet Nodes on Supply Air Path Component>,<Number of Nodes>
! <Supply Air Path Component Nodes>,<Node Count>,<Component Type>,<Component Name>,<Inlet Node Name>,<Outlet Node Name>,<AirLoopHVAC Name>
! ===============================================================
! <#Return Air Paths>,<Number of Return Air Paths>
 #Return Air Paths,0
! <Return Air Path>,<Return Air Path Count>,<Return Air Path Name>,<AirLoopHVAC Name>
! <#Components on Return Air Path>,<Number of Components>
! <Return Air Path Component>,<Component Count>,<Component Type>,<Component Name>,<AirLoopHVAC Name>
! <#Inlet Nodes on Return Air Path Component>,<Number of Nodes>
! <Return Air Path Component Nodes>,<Node Count>,<Component Type>,<Component Name>,<Inlet Node Name>,<Outlet Node Name>,<AirLoopHVAC Name>
! ===============================================================
! #Outdoor Air Nodes,<Number of Outdoor Air Nodes>
 #Outdoor Air Nodes,2
! <Outdoor Air Node>,<NodeNumber>,<Node Name>
 Outdoor Air Node,37,WHOLEHOUSE_879BD36E PTAC OA NODE
 Outdoor Air Node,39,MODEL OUTDOOR AIR NODE
! ===============================================================
! <#Component Sets>,<Number of Component Sets>
 #Component Sets,20
! <Component Set>,<Component Set Count>,<Parent Object Type>,<Parent Object Name>,<Component Type>,<Component Name>,<Inlet Node ID>,<Outlet Node ID>,<Description>
 Component Set,1,BRANCH,HOT WATER LOOP SUPPLY INLET BRANCH,PUMP:VARIABLESPEED,HOT WATER LOOP PUMP,HOT WATER LOOP SUPPLY INLET NODE,HOT WATER LOOP PUMP OUTLET WATER NODE,Water Nodes
 Component Set,2,BRANCH,HOT WATER LOOP SUPPLY BRANCH 1,BOILER:HOTWATER,90.1-2019 BOILER,BOILER INLET WATER NODE,BOILER OUTLET WATER NODE,Hot Water Nodes
 Component Set,3,BRANCH,HOT WATER LOOP SUPPLY BRANCH 2,PIPE:ADIABATIC,HOT WATER LOOP SUPPLY EQUIPMENT BYPASS,HOT WATER LOOP SUPPLY EQUIPMENT BYPASS INLET WATER NODE,HOT WATER LOOP SUPPLY EQUIPMENT BYPASS OUTLET WATER NODE,Pipe Nodes
 Component Set,4,BRANCH,HOT WATER LOOP SUPPLY OUTLET BRANCH,PIPE:ADIABATIC,HOT WATER LOOP SUPPLY OUTLET,HOT WATER LOOP SUPPLY OUTLET INLET WATER NODE,HOT WATER LOOP SUPPLY OUTLET NODE,Pipe Nodes
 Component Set,5,BRANCH,HOT WATER LOOP DEMAND INLET BRANCH,PIPE:ADIABATIC,HOT WATER LOOP DEMAND INLET,HOT WATER LOOP DEMAND INLET NODE,HOT WATER LOOP DEMAND INLET OUTLET WATER NODE,Pipe Nodes
 Component Set,6,BRANCH,HOT WATER LOOP DEMAND BRANCH 1,PIPE:ADIABATIC,HOT WATER LOOP COIL BYPASS,HOT WATER LOOP COIL BYPASS INLET WATER NODE,HOT WATER LOOP COIL BYPASS OUTLET WATER NODE,Pipe Nodes
 Component Set,7,BRANCH,HOT WATER LOOP DEMAND BRANCH 2,COIL:HEATING:WATER,HOT WATER LOOP WATER HTG COIL,HOT WATER LOOP WATER HTG COIL INLET WATER NODE,HOT WATER LOOP WATER HTG COIL OUTLET WATER NODE,Water Nodes
 Component Set,8,BRANCH,HOT WATER LOOP DEMAND BYPASS BRANCH,PIPE:ADIABATIC,HOT WATER LOOP DEMAND BYPASS PIPE,HOT WATER LOOP DEMAND BYPASS PIPE INLET NODE,HOT WATER LOOP DEMAND BYPASS PIPE OUTLET NODE,Pipe Nodes
 Component Set,9,BRANCH,HOT WATER LOOP DEMAND OUTLET BRANCH,PIPE:ADIABATIC,HOT WATER LOOP DEMAND OUTLET,HOT WATER LOOP DEMAND OUTLET INLET WATER NODE,HOT WATER LOOP DEMAND OUTLET NODE,Pipe Nodes
 Component Set,10,BRANCH,SHW LOOP RV2024_GASHOTWATER SUPPLY INLET BRANCH,PUMP:CONSTANTSPEED,SHW PUMP1,NODE 1,NODE 7,Water Nodes
 Component Set,11,BRANCH,SHW LOOP RV2024_GASHOTWATER SUPPLY BRANCH 1,WATERHEATER:MIXED,SHW WATERHEATER1,NODE 3,NODE 8,Use Side Water Nodes
 Component Set,12,BRANCH,SHW LOOP RV2024_GASHOTWATER SUPPLY OUTLET BRANCH,PIPE:ADIABATIC,SHW LOOP RV2024_GASHOTWATER SUPPLY OUTLET PIPE,SHW LOOP RV2024_GASHOTWATER SUPPLY OUTLET PIPE NODE,NODE 2,Pipe Nodes
 Component Set,13,BRANCH,SHW LOOP RV2024_GASHOTWATER DEMAND INLET BRANCH,PIPE:ADIABATIC,SHW LOOP RV2024_GASHOTWATER DEMAND INLET PIPE,NODE 4,SHW LOOP RV2024_GASHOTWATER DEMAND INLET PIPE NODE,Pipe Nodes
 Component Set,14,BRANCH,SHW LOOP RV2024_GASHOTWATER DEMAND BRANCH 1,WATERUSE:CONNECTIONS,WATER USE CONNECTIONS 1,NODE 6,NODE 9,DHW Nodes
 Component Set,15,BRANCH,SHW LOOP RV2024_GASHOTWATER DEMAND BYPASS BRANCH,PIPE:ADIABATIC,SHW LOOP RV2024_GASHOTWATER DEMAND BYPASS PIPE,SHW LOOP RV2024_GASHOTWATER DEMAND BYPASS PIPE INLET NODE,SHW LOOP RV2024_GASHOTWATER DEMAND BYPASS PIPE OUTLET NODE,Pipe Nodes
 Component Set,16,BRANCH,SHW LOOP RV2024_GASHOTWATER DEMAND OUTLET BRANCH,PIPE:ADIABATIC,SHW LOOP RV2024_GASHOTWATER DEMAND OUTLET PIPE,SHW LOOP RV2024_GASHOTWATER DEMAND OUTLET PIPE NODE,NODE 5,Pipe Nodes
 Component Set,17,ZONEHVAC:PACKAGEDTERMINALAIRCONDITIONER,WHOLEHOUSE_879BD36E PTAC,OUTDOORAIR:MIXER,WHOLEHOUSE_879BD36E PTAC OA MIXER,WHOLEHOUSE_879BD36E PTAC OA NODE,WHOLEHOUSE_879BD36E PTAC MIXED AIR NODE,Air Nodes
 Component Set,18,ZONEHVAC:PACKAGEDTERMINALAIRCONDITIONER,WHOLEHOUSE_879BD36E PTAC,FAN:ONOFF,WHOLEHOUSE_879BD36E PTAC FAN,WHOLEHOUSE_879BD36E PTAC HEATING COIL OUTLET NODE,WHOLEHOUSE_879BD36E PTAC OUTLET AIR NODE,Air Nodes
 Component Set,19,ZONEHVAC:PACKAGEDTERMINALAIRCONDITIONER,WHOLEHOUSE_879BD36E PTAC,COIL:HEATING:WATER,HOT WATER LOOP WATER HTG COIL,WHOLEHOUSE_879BD36E PTAC COOLING COIL OUTLET NODE,WHOLEHOUSE_879BD36E PTAC HEATING COIL OUTLET NODE,Air Nodes
 Component Set,20,ZONEHVAC:PACKAGEDTERMINALAIRCONDITIONER,WHOLEHOUSE_879BD36E PTAC,COIL:COOLING:DX:SINGLESPEED,WHOLEHOUSE_879BD36E PTAC 1SPD DX AC CLG COIL,WHOLEHOUSE_879BD36E PTAC MIXED AIR NODE,WHOLEHOUSE_879BD36E PTAC COOLING COIL OUTLET NODE,Air Nodes
! ===============================================================
! <# Plant Loops>,<Number of Plant Loops>
 #Plant Loops,2
! <Plant Loop>,<Plant Loop Name>,<Loop Type>,<Inlet Node Name>,<Outlet Node Name>,<Branch List>,<Connector List>
! <Plant Loop Connector>,<Connector Type>,<Connector Name>,<Loop Name>,<Loop Type>,<Number of Inlets/Outlets>
! <Plant Loop Connector Branches>,<Connector Node Count>,<Connector Type>,<Connector Name>,<Inlet Branch>,<Outlet Branch>,<Loop Name>,<Loop Type>
! <Plant Loop Connector Nodes>,<Connector Node Count>,<Connector Type>,<Connector Name>,<Inlet Node>,<Outlet Node>,<Loop Name>,<Loop Type>
! <Plant Loop Supply Connection>,<Plant Loop Name>,<Supply Side Outlet Node Name>,<Demand Side Inlet Node Name>
! <Plant Loop Return Connection>,<Plant Loop Name>,<Demand Side Outlet Node Name>,<Supply Side Inlet Node Name>
 Plant Loop,HOT WATER LOOP,Demand,HOT WATER LOOP DEMAND INLET NODE,HOT WATER LOOP DEMAND OUTLET NODE,HOT WATER LOOP DEMAND BRANCHES,HOT WATER LOOP DEMAND CONNECTOR LIST
   Plant Loop Connector,Splitter,HOT WATER LOOP DEMAND SPLITTER,HOT WATER LOOP,Demand,3
     Plant Loop Connector Branches,1,Splitter,HOT WATER LOOP DEMAND SPLITTER,HOT WATER LOOP DEMAND INLET BRANCH,HOT WATER LOOP DEMAND BRANCH 1,HOT WATER LOOP,Demand
     Plant Loop Connector Nodes,   1,Splitter,HOT WATER LOOP DEMAND SPLITTER,HOT WATER LOOP DEMAND INLET OUTLET WATER NODE,HOT WATER LOOP COIL BYPASS INLET WATER NODE,HOT WATER LOOP,Demand
     Plant Loop Connector Branches,2,Splitter,HOT WATER LOOP DEMAND SPLITTER,HOT WATER LOOP DEMAND INLET BRANCH,HOT WATER LOOP DEMAND BRANCH 2,HOT WATER LOOP,Demand
     Plant Loop Connector Nodes,   2,Splitter,HOT WATER LOOP DEMAND SPLITTER,HOT WATER LOOP DEMAND INLET OUTLET WATER NODE,HOT WATER LOOP WATER HTG COIL INLET WATER NODE,HOT WATER LOOP,Demand
     Plant Loop Connector Branches,3,Splitter,HOT WATER LOOP DEMAND SPLITTER,HOT WATER LOOP DEMAND INLET BRANCH,HOT WATER LOOP DEMAND BYPASS BRANCH,HOT WATER LOOP,Demand
     Plant Loop Connector Nodes,   3,Splitter,HOT WATER LOOP DEMAND SPLITTER,HOT WATER LOOP DEMAND INLET OUTLET WATER NODE,HOT WATER LOOP DEMAND BYPASS PIPE INLET NODE,HOT WATER LOOP,Demand
   Plant Loop Connector,Mixer,HOT WATER LOOP DEMAND MIXER,HOT WATER LOOP,Demand,3
     Plant Loop Connector Branches,1,Mixer,HOT WATER LOOP DEMAND MIXER,HOT WATER LOOP DEMAND BRANCH 1,HOT WATER LOOP DEMAND OUTLET BRANCH,HOT WATER LOOP,Demand
     Plant Loop Connector Nodes,   1,Mixer,HOT WATER LOOP DEMAND MIXER,HOT WATER LOOP COIL BYPASS OUTLET WATER NODE,HOT WATER LOOP DEMAND OUTLET INLET WATER NODE,HOT WATER LOOP,Demand
     Plant Loop Connector Branches,2,Mixer,HOT WATER LOOP DEMAND MIXER,HOT WATER LOOP DEMAND BRANCH 2,HOT WATER LOOP DEMAND OUTLET BRANCH,HOT WATER LOOP,Demand
     Plant Loop Connector Nodes,   2,Mixer,HOT WATER LOOP DEMAND MIXER,HOT WATER LOOP WATER HTG COIL OUTLET WATER NODE,HOT WATER LOOP DEMAND OUTLET INLET WATER NODE,HOT WATER LOOP,Demand
     Plant Loop Connector Branches,3,Mixer,HOT WATER LOOP DEMAND MIXER,HOT WATER LOOP DEMAND BYPASS BRANCH,HOT WATER LOOP DEMAND OUTLET BRANCH,HOT WATER LOOP,Demand
     Plant Loop Connector Nodes,   3,Mixer,HOT WATER LOOP DEMAND MIXER,HOT WATER LOOP DEMAND BYPASS PIPE OUTLET NODE,HOT WATER LOOP DEMAND OUTLET INLET WATER NODE,HOT WATER LOOP,Demand
 Plant Loop,HOT WATER LOOP,Supply,HOT WATER LOOP SUPPLY INLET NODE,HOT WATER LOOP SUPPLY OUTLET NODE,HOT WATER LOOP SUPPLY BRANCHES,HOT WATER LOOP SUPPLY CONNECTOR LIST
   Plant Loop Connector,Splitter,HOT WATER LOOP SUPPLY SPLITTER,HOT WATER LOOP,Supply,2
     Plant Loop Connector Branches,1,Splitter,HOT WATER LOOP SUPPLY SPLITTER,HOT WATER LOOP SUPPLY INLET BRANCH,HOT WATER LOOP SUPPLY BRANCH 1,HOT WATER LOOP,Supply
     Plant Loop Connector Nodes,   1,Splitter,HOT WATER LOOP SUPPLY SPLITTER,HOT WATER LOOP PUMP OUTLET WATER NODE,BOILER INLET WATER NODE,HOT WATER LOOP,Supply
     Plant Loop Connector Branches,2,Splitter,HOT WATER LOOP SUPPLY SPLITTER,HOT WATER LOOP SUPPLY INLET BRANCH,HOT WATER LOOP SUPPLY BRANCH 2,HOT WATER LOOP,Supply
     Plant Loop Connector Nodes,   2,Splitter,HOT WATER LOOP SUPPLY SPLITTER,HOT WATER LOOP PUMP OUTLET WATER NODE,HOT WATER LOOP SUPPLY EQUIPMENT BYPASS INLET WATER NODE,HOT WATER LOOP,Supply
   Plant Loop Connector,Mixer,HOT WATER LOOP SUPPLY MIXER,HOT WATER LOOP,Supply,2
     Plant Loop Connector Branches,1,Mixer,HOT WATER LOOP SUPPLY MIXER,HOT WATER LOOP SUPPLY BRANCH 1,HOT WATER LOOP SUPPLY OUTLET BRANCH,HOT WATER LOOP,Supply
     Plant Loop Connector Nodes,   1,Mixer,HOT WATER LOOP SUPPLY MIXER,BOILER OUTLET WATER NODE,HOT WATER LOOP SUPPLY OUTLET INLET WATER NODE,HOT WATER LOOP,Supply
     Plant Loop Connector Branches,2,Mixer,HOT WATER LOOP SUPPLY MIXER,HOT WATER LOOP SUPPLY BRANCH 2,HOT WATER LOOP SUPPLY OUTLET BRANCH,HOT WATER LOOP,Supply
     Plant Loop Connector Nodes,   2,Mixer,HOT WATER LOOP SUPPLY MIXER,HOT WATER LOOP SUPPLY EQUIPMENT BYPASS OUTLET WATER NODE,HOT WATER LOOP SUPPLY OUTLET INLET WATER NODE,HOT WATER LOOP,Supply
 Plant Loop Supply Connection,HOT WATER LOOP,HOT WATER LOOP SUPPLY OUTLET NODE,HOT WATER LOOP DEMAND INLET NODE
 Plant Loop Return Connection,HOT WATER LOOP,HOT WATER LOOP DEMAND OUTLET NODE,HOT WATER LOOP SUPPLY INLET NODE
 Plant Loop,SHW LOOP RV2024_GASHOTWATER,Demand,NODE 4,NODE 5,SHW LOOP RV2024_GASHOTWATER DEMAND BRANCHES,SHW LOOP RV2024_GASHOTWATER DEMAND CONNECTOR LIST
   Plant Loop Connector,Splitter,SHW LOOP RV2024_GASHOTWATER DEMAND SPLITTER,SHW LOOP RV2024_GASHOTWATER,Demand,2
     Plant Loop Connector Branches,1,Splitter,SHW LOOP RV2024_GASHOTWATER DEMAND SPLITTER,SHW LOOP RV2024_GASHOTWATER DEMAND INLET BRANCH,SHW LOOP RV2024_GASHOTWATER DEMAND BRANCH 1,SHW LOOP RV2024_GASHOTWATER,Demand
     Plant Loop Connector Nodes,   1,Splitter,SHW LOOP RV2024_GASHOTWATER DEMAND SPLITTER,SHW LOOP RV2024_GASHOTWATER DEMAND INLET PIPE NODE,NODE 6,SHW LOOP RV2024_GASHOTWATER,Demand
     Plant Loop Connector Branches,2,Splitter,SHW LOOP RV2024_GASHOTWATER DEMAND SPLITTER,SHW LOOP RV2024_GASHOTWATER DEMAND INLET BRANCH,SHW LOOP RV2024_GASHOTWATER DEMAND BYPASS BRANCH,SHW LOOP RV2024_GASHOTWATER,Demand
     Plant Loop Connector Nodes,   2,Splitter,SHW LOOP RV2024_GASHOTWATER DEMAND SPLITTER,SHW LOOP RV2024_GASHOTWATER DEMAND INLET PIPE NODE,SHW LOOP RV2024_GASHOTWATER DEMAND BYPASS PIPE INLET NODE,SHW LOOP RV2024_GASHOTWATER,Demand
   Plant Loop Connector,Mixer,SHW LOOP RV2024_GASHOTWATER DEMAND MIXER,SHW LOOP RV2024_GASHOTWATER,Demand,2
     Plant Loop Connector Branches,1,Mixer,SHW LOOP RV2024_GASHOTWATER DEMAND MIXER,SHW LOOP RV2024_GASHOTWATER DEMAND BRANCH 1,SHW LOOP RV2024_GASHOTWATER DEMAND OUTLET BRANCH,SHW LOOP RV2024_GASHOTWATER,Demand
     Plant Loop Connector Nodes,   1,Mixer,SHW LOOP RV2024_GASHOTWATER DEMAND MIXER,NODE 9,SHW LOOP RV2024_GASHOTWATER DEMAND OUTLET PIPE NODE,SHW LOOP RV2024_GASHOTWATER,Demand
     Plant Loop Connector Branches,2,Mixer,SHW LOOP RV2024_GASHOTWATER DEMAND MIXER,SHW LOOP RV2024_GASHOTWATER DEMAND BYPASS BRANCH,SHW LOOP RV2024_GASHOTWATER DEMAND OUTLET BRANCH,SHW LOOP RV2024_GASHOTWATER,Demand
     Plant Loop Connector Nodes,   2,Mixer,SHW LOOP RV2024_GASHOTWATER DEMAND MIXER,SHW LOOP RV2024_GASHOTWATER DEMAND BYPASS PIPE OUTLET NODE,SHW LOOP RV2024_GASHOTWATER DEMAND OUTLET PIPE NODE,SHW LOOP RV2024_GASHOTWATER,Demand
 Plant Loop,SHW LOOP RV2024_GASHOTWATER,Supply,NODE 1,NODE 2,SHW LOOP RV2024_GASHOTWATER SUPPLY BRANCHES,SHW LOOP RV2024_GASHOTWATER SUPPLY CONNECTOR LIST
   Plant Loop Connector,Splitter,SHW LOOP RV2024_GASHOTWATER SUPPLY SPLITTER,SHW LOOP RV2024_GASHOTWATER,Supply,1
     Plant Loop Connector Branches,1,Splitter,SHW LOOP RV2024_GASHOTWATER SUPPLY SPLITTER,SHW LOOP RV2024_GASHOTWATER SUPPLY INLET BRANCH,SHW LOOP RV2024_GASHOTWATER SUPPLY BRANCH 1,SHW LOOP RV2024_GASHOTWATER,Supply
     Plant Loop Connector Nodes,   1,Splitter,SHW LOOP RV2024_GASHOTWATER SUPPLY SPLITTER,NODE 7,NODE 3,SHW LOOP RV2024_GASHOTWATER,Supply
   Plant Loop Connector,Mixer,SHW LOOP RV2024_GASHOTWATER SUPPLY MIXER,SHW LOOP RV2024_GASHOTWATER,Supply,1
     Plant Loop Connector Branches,1,Mixer,SHW LOOP RV2024_GASHOTWATER SUPPLY MIXER,SHW LOOP RV2024_GASHOTWATER SUPPLY BRANCH 1,SHW LOOP RV2024_GASHOTWATER SUPPLY OUTLET BRANCH,SHW LOOP RV2024_GASHOTWATER,Supply
     Plant Loop Connector Nodes,   1,Mixer,SHW LOOP RV2024_GASHOTWATER SUPPLY MIXER,NODE 8,SHW LOOP RV2024_GASHOTWATER SUPPLY OUTLET PIPE NODE,SHW LOOP RV2024_GASHOTWATER,Supply
 Plant Loop Supply Connection,SHW LOOP RV2024_GASHOTWATER,NODE 2,NODE 4
 Plant Loop Return Connection,SHW LOOP RV2024_GASHOTWATER,NODE 5,NODE 1
! ===============================================================
! <# Condenser Loops>,<Number of Condenser Loops>
 #Condenser Loops,0
! <Condenser Loop>,<Condenser Loop Name>,<Loop Type>,<Inlet Node Name>,<Outlet Node Name>,<Branch List>,<Connector List>
! <Condenser Loop Connector>,<Connector Type>,<Connector Name>,<Loop Name>,<Loop Type>,<Number of Inlets/Outlets>
! <Condenser Loop Connector Branches>,<Connector Node Count>,<Connector Type>,<Connector Name>,<Inlet Branch>,<Outlet Branch>,<Loop Name>,<Loop Type>
! <Condenser Loop Connector Nodes>,<Connector Node Count>,<Connector Type>,<Connector Name>,<Inlet Node>,<Outlet Node>,<Loop Name>,<Loop Type>
! <Condenser Loop Supply Connection>,<Condenser Loop Name>,<Supply Side Outlet Node Name>,<Demand Side Inlet Node Name>
! <Condenser Loop Return Connection>,<Condenser Loop Name>,<Demand Side Outlet Node Name>,<Supply Side Inlet Node Name>
! ===============================================================
! <# Controlled Zones>,<Number of Controlled Zones>
 #Controlled Zones,1
! <Controlled Zone>,<Controlled Zone Name>,<Equip List Name>,<Control List Name>,<Zone Node Name>,<# Inlet Nodes>,<# Exhaust Nodes>,<# Return Nodes>
! <Controlled Zone Inlet>,<Inlet Node Count>,<Controlled Zone Name>,<Supply Air Inlet Node Name>,<SD Sys:Cooling/Heating [DD:Cooling] Inlet Node Name>,<DD Sys:Heating Inlet Node Name>
! <Controlled Zone Exhaust>,<Exhaust Node Count>,<Controlled Zone Name>,<Exhaust Air Node Name>
 Controlled Zone,WHOLEHOUSE_879BD36E,WHOLEHOUSE_879BD36E EQUIPMENT LIST,,WHOLEHOUSE_879BD36E ZONE AIR NODE,1,1,0
   Controlled Zone Inlet,1,WHOLEHOUSE_879BD36E,WHOLEHOUSE_879BD36E PTAC OUTLET AIR NODE,Undefined,N/A
   Controlled Zone Exhaust,1,WHOLEHOUSE_879BD36E,WHOLEHOUSE_879BD36E PTAC INLET AIR NODE
! ===============================================================
! <#Zone Equipment Lists>,<Number of Zone Equipment Lists>
 #Zone Equipment Lists,1
! <Zone Equipment List>,<Zone Equipment List Count>,<Zone Equipment List Name>,<Zone Name>,<Number of Components>
! <Zone Equipment Component>,<Component Count>,<Component Type>,<Component Name>,<Zone Name>,<Heating Priority>,<Cooling Priority>
 Zone Equipment List,1,WHOLEHOUSE_879BD36E EQUIPMENT LIST,WHOLEHOUSE_879BD36E,1
   Zone Equipment Component,1,ZONEHVAC:PACKAGEDTERMINALAIRCONDITIONER,WHOLEHOUSE_879BD36E PTAC,WHOLEHOUSE_879BD36E,1,1
! ===============================================================
! <#AirLoopHVACs>,<Number of AirLoopHVACs>
 #AirLoopHVACs,0
! <AirLoopHVAC>,<Air Loop Name>,<# Return Nodes>,<# Supply Nodes>,<# Zones Cooled>,<# Zones Heated>,<Outdoor Air Used>
! <AirLoop Return Connections>,<Connection Count>,<AirLoopHVAC Name>,<Zn Eqp Return Node #>,<Zn Eqp Return Node Name>,<AirLoop Return Node #>,<Air Loop Return Node Name>
! <AirLoop Supply Connections>,<Connection Count>,<AirLoopHVAC Name>,<Zn Eqp Supply Node #>,<Zn Eqp Supply Node Name>,<AirLoop Supply Node #>,<Air Loop Supply Node Name>
! <Cooled Zone Info>,<Cooled Zone Count>,<Cooled Zone Name>,<Cooled Zone Inlet Node #>,<Cooled Zone Inlet Node Name>,<AirLoopHVAC Name>
! <Heated Zone Info>,<Heated Zone Count>,<Heated Zone Name>,<Heated Zone Inlet Node #>,<Heated Zone Inlet Node Name>,<AirLoopHVAC Name>
! <Outdoor Air Connections>,<OA Inlet Node #>,<OA Return Air Inlet Node Name>,<OA Outlet Node #>,<OA Mixed Air Outlet Node Name>,<AirLoopHVAC Name>
! <AirLoopHVAC Connector>,<Connector Type>,<Connector Name>,<Loop Name>,<Loop Type>,<Number of Inlets/Outlets>
! <AirLoopHVAC Connector Branches>,<Connector Node Count>,<Connector Type>,<Connector Name>,<Inlet Branch>,<Outlet Branch>,<Loop Name>,<Loop Type>
! <AirLoopHVAC Connector Nodes>,<Connector Node Count>,<Connector Type>,<Connector Name>,<Inlet Node>,<Outlet Node>,<Loop Name>,<Loop Type>
! ===============================================================
! <#Parent Node Connections>,<Number of Parent Node Connections>
 #Parent Node Connections,44
! <Parent Node Connection>,<Node Name>,<Node ObjectType>,<Node ObjectName>,<Node ConnectionType>,<Node FluidStream>
 Parent Node Connection,HOT WATER LOOP SUPPLY INLET NODE,BRANCH,HOT WATER LOOP SUPPLY INLET BRANCH,Inlet,1
 Parent Node Connection,HOT WATER LOOP PUMP OUTLET WATER NODE,BRANCH,HOT WATER LOOP SUPPLY INLET BRANCH,Outlet,1
 Parent Node Connection,BOILER INLET WATER NODE,BRANCH,HOT WATER LOOP SUPPLY BRANCH 1,Inlet,1
 Parent Node Connection,BOILER OUTLET WATER NODE,BRANCH,HOT WATER LOOP SUPPLY BRANCH 1,Outlet,1
 Parent Node Connection,HOT WATER LOOP SUPPLY EQUIPMENT BYPASS INLET WATER NODE,BRANCH,HOT WATER LOOP SUPPLY BRANCH 2,Inlet,1
 Parent Node Connection,HOT WATER LOOP SUPPLY EQUIPMENT BYPASS OUTLET WATER NODE,BRANCH,HOT WATER LOOP SUPPLY BRANCH 2,Outlet,1
 Parent Node Connection,HOT WATER LOOP SUPPLY OUTLET INLET WATER NODE,BRANCH,HOT WATER LOOP SUPPLY OUTLET BRANCH,Inlet,1
 Parent Node Connection,HOT WATER LOOP SUPPLY OUTLET NODE,BRANCH,HOT WATER LOOP SUPPLY OUTLET BRANCH,Outlet,1
 Parent Node Connection,HOT WATER LOOP DEMAND INLET NODE,BRANCH,HOT WATER LOOP DEMAND INLET BRANCH,Inlet,1
 Parent Node Connection,HOT WATER LOOP DEMAND INLET OUTLET WATER NODE,BRANCH,HOT WATER LOOP DEMAND INLET BRANCH,Outlet,1
 Parent Node Connection,HOT WATER LOOP COIL BYPASS INLET WATER NODE,BRANCH,HOT WATER LOOP DEMAND BRANCH 1,Inlet,1
 Parent Node Connection,HOT WATER LOOP COIL BYPASS OUTLET WATER NODE,BRANCH,HOT WATER LOOP DEMAND BRANCH 1,Outlet,1
 Parent Node Connection,HOT WATER LOOP WATER HTG COIL INLET WATER NODE,BRANCH,HOT WATER LOOP DEMAND BRANCH 2,Inlet,1
 Parent Node Connection,HOT WATER LOOP WATER HTG COIL OUTLET WATER NODE,BRANCH,HOT WATER LOOP DEMAND BRANCH 2,Outlet,1
 Parent Node Connection,HOT WATER LOOP DEMAND BYPASS PIPE INLET NODE,BRANCH,HOT WATER LOOP DEMAND BYPASS BRANCH,Inlet,1
 Parent Node Connection,HOT WATER LOOP DEMAND BYPASS PIPE OUTLET NODE,BRANCH,HOT WATER LOOP DEMAND BYPASS BRANCH,Outlet,1
 Parent Node Connection,HOT WATER LOOP DEMAND OUTLET INLET WATER NODE,BRANCH,HOT WATER LOOP DEMAND OUTLET BRANCH,Inlet,1
 Parent Node Connection,HOT WATER LOOP DEMAND OUTLET NODE,BRANCH,HOT WATER LOOP DEMAND OUTLET BRANCH,Outlet,1
 Parent Node Connection,NODE 1,BRANCH,SHW LOOP RV2024_GASHOTWATER SUPPLY INLET BRANCH,Inlet,1
 Parent Node Connection,NODE 7,BRANCH,SHW LOOP RV2024_GASHOTWATER SUPPLY INLET BRANCH,Outlet,1
 Parent Node Connection,NODE 3,BRANCH,SHW LOOP RV2024_GASHOTWATER SUPPLY BRANCH 1,Inlet,1
 Parent Node Connection,NODE 8,BRANCH,SHW LOOP RV2024_GASHOTWATER SUPPLY BRANCH 1,Outlet,1
 Parent Node Connection,SHW LOOP RV2024_GASHOTWATER SUPPLY OUTLET PIPE NODE,BRANCH,SHW LOOP RV2024_GASHOTWATER SUPPLY OUTLET BRANCH,Inlet,1
 Parent Node Connection,NODE 2,BRANCH,SHW LOOP RV2024_GASHOTWATER SUPPLY OUTLET BRANCH,Outlet,1
 Parent Node Connection,NODE 4,BRANCH,SHW LOOP RV2024_GASHOTWATER DEMAND INLET BRANCH,Inlet,1
 Parent Node Connection,SHW LOOP RV2024_GASHOTWATER DEMAND INLET PIPE NODE,BRANCH,SHW LOOP RV2024_GASHOTWATER DEMAND INLET BRANCH,Outlet,1
 Parent Node Connection,NODE 6,BRANCH,SHW LOOP RV2024_GASHOTWATER DEMAND BRANCH 1,Inlet,1
 Parent Node Connection,NODE 9,BRANCH,SHW LOOP RV2024_GASHOTWATER DEMAND BRANCH 1,Outlet,1
 Parent Node Connection,SHW LOOP RV2024_GASHOTWATER DEMAND BYPASS PIPE INLET NODE,BRANCH,SHW LOOP RV2024_GASHOTWATER DEMAND BYPASS BRANCH,Inlet,1
 Parent Node Connection,SHW LOOP RV2024_GASHOTWATER DEMAND BYPASS PIPE OUTLET NODE,BRANCH,SHW LOOP RV2024_GASHOTWATER DEMAND BYPASS BRANCH,Outlet,1
 Parent Node Connection,SHW LOOP RV2024_GASHOTWATER DEMAND OUTLET PIPE NODE,BRANCH,SHW LOOP RV2024_GASHOTWATER DEMAND OUTLET BRANCH,Inlet,1
 Parent Node Connection,NODE 5,BRANCH,SHW LOOP RV2024_GASHOTWATER DEMAND OUTLET BRANCH,Outlet,1
 Parent Node Connection,WHOLEHOUSE_879BD36E PTAC INLET AIR NODE,ZONEHVAC:PACKAGEDTERMINALAIRCONDITIONER,WHOLEHOUSE_879BD36E PTAC,Inlet,1
 Parent Node Connection,WHOLEHOUSE_879BD36E PTAC OUTLET AIR NODE,ZONEHVAC:PACKAGEDTERMINALAIRCONDITIONER,WHOLEHOUSE_879BD36E PTAC,Outlet,1
 Parent Node Connection,HOT WATER LOOP SUPPLY INLET NODE,PLANTLOOP,HOT WATER LOOP,Inlet,1
 Parent Node Connection,HOT WATER LOOP SUPPLY OUTLET NODE,PLANTLOOP,HOT WATER LOOP,Outlet,1
 Parent Node Connection,HOT WATER LOOP DEMAND INLET NODE,PLANTLOOP,HOT WATER LOOP,Inlet,1
 Parent Node Connection,HOT WATER LOOP DEMAND OUTLET NODE,PLANTLOOP,HOT WATER LOOP,Outlet,1
 Parent Node Connection,HOT WATER LOOP SUPPLY OUTLET NODE,PLANTLOOP,HOT WATER LOOP,Sensor,1
 Parent Node Connection,NODE 1,PLANTLOOP,SHW LOOP RV2024_GASHOTWATER,Inlet,1
 Parent Node Connection,NODE 2,PLANTLOOP,SHW LOOP RV2024_GASHOTWATER,Outlet,1
 Parent Node Connection,NODE 4,PLANTLOOP,SHW LOOP RV2024_GASHOTWATER,Inlet,1
 Parent Node Connection,NODE 5,PLANTLOOP,SHW LOOP RV2024_GASHOTWATER,Outlet,1
 Parent Node Connection,NODE 2,PLANTLOOP,SHW LOOP RV2024_GASHOTWATER,Sensor,1
! ===============================================================
! <#Non-Parent Node Connections>,<Number of Non-Parent Node Connections>
 #Non-Parent Node Connections,73
! <Non-Parent Node Connection>,<Node Name>,<Node ObjectType>,<Node ObjectName>,<Node ConnectionType>,<Node FluidStream>
 Non-Parent Node Connection,WHOLEHOUSE_879BD36E ZONE AIR NODE,ZONEHVAC:EQUIPMENTCONNECTIONS,WHOLEHOUSE_879BD36E,ZoneNode,1
 Non-Parent Node Connection,WHOLEHOUSE_879BD36E PTAC MIXED AIR NODE,OUTDOORAIR:MIXER,WHOLEHOUSE_879BD36E PTAC OA MIXER,Outlet,1
 Non-Parent Node Connection,WHOLEHOUSE_879BD36E PTAC OA NODE,OUTDOORAIR:MIXER,WHOLEHOUSE_879BD36E PTAC OA MIXER,Inlet,1
 Non-Parent Node Connection,WHOLEHOUSE_879BD36E PTAC RELIEF AIR NODE,OUTDOORAIR:MIXER,WHOLEHOUSE_879BD36E PTAC OA MIXER,ReliefAir,1
 Non-Parent Node Connection,WHOLEHOUSE_879BD36E PTAC INLET AIR NODE,OUTDOORAIR:MIXER,WHOLEHOUSE_879BD36E PTAC OA MIXER,Inlet,1
 Non-Parent Node Connection,WHOLEHOUSE_879BD36E PTAC OUTLET AIR NODE,ZONEHVAC:EQUIPMENTCONNECTIONS,WHOLEHOUSE_879BD36E,ZoneInlet,1
 Non-Parent Node Connection,WHOLEHOUSE_879BD36E PTAC INLET AIR NODE,ZONEHVAC:EQUIPMENTCONNECTIONS,WHOLEHOUSE_879BD36E,ZoneExhaust,1
 Non-Parent Node Connection,NODE 3,WATERHEATER:MIXED,SHW WATERHEATER1,Inlet,1
 Non-Parent Node Connection,NODE 8,WATERHEATER:MIXED,SHW WATERHEATER1,Outlet,1
 Non-Parent Node Connection,WHOLEHOUSE_879BD36E PTAC OA NODE,OUTDOORAIR:NODELIST,OutdoorAir:NodeList,OutdoorAir,1
 Non-Parent Node Connection,MODEL OUTDOOR AIR NODE,OUTDOORAIR:NODE,OutdoorAir:Node,OutdoorAir,2
 Non-Parent Node Connection,HOT WATER LOOP SUPPLY OUTLET NODE,SETPOINTMANAGER:SCHEDULED,HOT WATER LOOP SETPOINT MANAGER,Setpoint,1
 Non-Parent Node Connection,NODE 2,SETPOINTMANAGER:SCHEDULED,SETPOINT MANAGER SCHEDULED 1,Setpoint,1
 Non-Parent Node Connection,HOT WATER LOOP SUPPLY EQUIPMENT BYPASS INLET WATER NODE,PIPE:ADIABATIC,HOT WATER LOOP SUPPLY EQUIPMENT BYPASS,Inlet,1
 Non-Parent Node Connection,HOT WATER LOOP SUPPLY EQUIPMENT BYPASS OUTLET WATER NODE,PIPE:ADIABATIC,HOT WATER LOOP SUPPLY EQUIPMENT BYPASS,Outlet,1
 Non-Parent Node Connection,HOT WATER LOOP SUPPLY OUTLET INLET WATER NODE,PIPE:ADIABATIC,HOT WATER LOOP SUPPLY OUTLET,Inlet,1
 Non-Parent Node Connection,HOT WATER LOOP SUPPLY OUTLET NODE,PIPE:ADIABATIC,HOT WATER LOOP SUPPLY OUTLET,Outlet,1
 Non-Parent Node Connection,HOT WATER LOOP DEMAND INLET NODE,PIPE:ADIABATIC,HOT WATER LOOP DEMAND INLET,Inlet,1
 Non-Parent Node Connection,HOT WATER LOOP DEMAND INLET OUTLET WATER NODE,PIPE:ADIABATIC,HOT WATER LOOP DEMAND INLET,Outlet,1
 Non-Parent Node Connection,HOT WATER LOOP COIL BYPASS INLET WATER NODE,PIPE:ADIABATIC,HOT WATER LOOP COIL BYPASS,Inlet,1
 Non-Parent Node Connection,HOT WATER LOOP COIL BYPASS OUTLET WATER NODE,PIPE:ADIABATIC,HOT WATER LOOP COIL BYPASS,Outlet,1
 Non-Parent Node Connection,HOT WATER LOOP DEMAND BYPASS PIPE INLET NODE,PIPE:ADIABATIC,HOT WATER LOOP DEMAND BYPASS PIPE,Inlet,1
 Non-Parent Node Connection,HOT WATER LOOP DEMAND BYPASS PIPE OUTLET NODE,PIPE:ADIABATIC,HOT WATER LOOP DEMAND BYPASS PIPE,Outlet,1
 Non-Parent Node Connection,HOT WATER LOOP DEMAND OUTLET INLET WATER NODE,PIPE:ADIABATIC,HOT WATER LOOP DEMAND OUTLET,Inlet,1
 Non-Parent Node Connection,HOT WATER LOOP DEMAND OUTLET NODE,PIPE:ADIABATIC,HOT WATER LOOP DEMAND OUTLET,Outlet,1
 Non-Parent Node Connection,SHW LOOP RV2024_GASHOTWATER SUPPLY OUTLET PIPE NODE,PIPE:ADIABATIC,SHW LOOP RV2024_GASHOTWATER SUPPLY OUTLET PIPE,Inlet,1
 Non-Parent Node Connection,NODE 2,PIPE:ADIABATIC,SHW LOOP RV2024_GASHOTWATER SUPPLY OUTLET PIPE,Outlet,1
 Non-Parent Node Connection,NODE 4,PIPE:ADIABATIC,SHW LOOP RV2024_GASHOTWATER DEMAND INLET PIPE,Inlet,1
 Non-Parent Node Connection,SHW LOOP RV2024_GASHOTWATER DEMAND INLET PIPE NODE,PIPE:ADIABATIC,SHW LOOP RV2024_GASHOTWATER DEMAND INLET PIPE,Outlet,1
 Non-Parent Node Connection,SHW LOOP RV2024_GASHOTWATER DEMAND BYPASS PIPE INLET NODE,PIPE:ADIABATIC,SHW LOOP RV2024_GASHOTWATER DEMAND BYPASS PIPE,Inlet,1
 Non-Parent Node Connection,SHW LOOP RV2024_GASHOTWATER DEMAND BYPASS PIPE OUTLET NODE,PIPE:ADIABATIC,SHW LOOP RV2024_GASHOTWATER DEMAND BYPASS PIPE,Outlet,1
 Non-Parent Node Connection,SHW LOOP RV2024_GASHOTWATER DEMAND OUTLET PIPE NODE,PIPE:ADIABATIC,SHW LOOP RV2024_GASHOTWATER DEMAND OUTLET PIPE,Inlet,1
 Non-Parent Node Connection,NODE 5,PIPE:ADIABATIC,SHW LOOP RV2024_GASHOTWATER DEMAND OUTLET PIPE,Outlet,1
 Non-Parent Node Connection,HOT WATER LOOP DEMAND INLET OUTLET WATER NODE,CONNECTOR:SPLITTER,HOT WATER LOOP DEMAND SPLITTER,Inlet,1
 Non-Parent Node Connection,HOT WATER LOOP COIL BYPASS INLET WATER NODE,CONNECTOR:SPLITTER,HOT WATER LOOP DEMAND SPLITTER,Outlet,1
 Non-Parent Node Connection,HOT WATER LOOP WATER HTG COIL INLET WATER NODE,CONNECTOR:SPLITTER,HOT WATER LOOP DEMAND SPLITTER,Outlet,1
 Non-Parent Node Connection,HOT WATER LOOP DEMAND BYPASS PIPE INLET NODE,CONNECTOR:SPLITTER,HOT WATER LOOP DEMAND SPLITTER,Outlet,1
 Non-Parent Node Connection,HOT WATER LOOP DEMAND OUTLET INLET WATER NODE,CONNECTOR:MIXER,HOT WATER LOOP DEMAND MIXER,Outlet,1
 Non-Parent Node Connection,HOT WATER LOOP COIL BYPASS OUTLET WATER NODE,CONNECTOR:MIXER,HOT WATER LOOP DEMAND MIXER,Inlet,1
 Non-Parent Node Connection,HOT WATER LOOP WATER HTG COIL OUTLET WATER NODE,CONNECTOR:MIXER,HOT WATER LOOP DEMAND MIXER,Inlet,1
 Non-Parent Node Connection,HOT WATER LOOP DEMAND BYPASS PIPE OUTLET NODE,CONNECTOR:MIXER,HOT WATER LOOP DEMAND MIXER,Inlet,1
 Non-Parent Node Connection,BOILER INLET WATER NODE,BOILER:HOTWATER,90.1-2019 BOILER,Inlet,1
 Non-Parent Node Connection,BOILER OUTLET WATER NODE,BOILER:HOTWATER,90.1-2019 BOILER,Outlet,1
 Non-Parent Node Connection,HOT WATER LOOP PUMP OUTLET WATER NODE,CONNECTOR:SPLITTER,HOT WATER LOOP SUPPLY SPLITTER,Inlet,1
 Non-Parent Node Connection,BOILER INLET WATER NODE,CONNECTOR:SPLITTER,HOT WATER LOOP SUPPLY SPLITTER,Outlet,1
 Non-Parent Node Connection,HOT WATER LOOP SUPPLY EQUIPMENT BYPASS INLET WATER NODE,CONNECTOR:SPLITTER,HOT WATER LOOP SUPPLY SPLITTER,Outlet,1
 Non-Parent Node Connection,HOT WATER LOOP SUPPLY OUTLET INLET WATER NODE,CONNECTOR:MIXER,HOT WATER LOOP SUPPLY MIXER,Outlet,1
 Non-Parent Node Connection,BOILER OUTLET WATER NODE,CONNECTOR:MIXER,HOT WATER LOOP SUPPLY MIXER,Inlet,1
 Non-Parent Node Connection,HOT WATER LOOP SUPPLY EQUIPMENT BYPASS OUTLET WATER NODE,CONNECTOR:MIXER,HOT WATER LOOP SUPPLY MIXER,Inlet,1
 Non-Parent Node Connection,NODE 6,WATERUSE:CONNECTIONS,WATER USE CONNECTIONS 1,Inlet,1
 Non-Parent Node Connection,NODE 9,WATERUSE:CONNECTIONS,WATER USE CONNECTIONS 1,Outlet,1
 Non-Parent Node Connection,SHW LOOP RV2024_GASHOTWATER DEMAND INLET PIPE NODE,CONNECTOR:SPLITTER,SHW LOOP RV2024_GASHOTWATER DEMAND SPLITTER,Inlet,1
 Non-Parent Node Connection,NODE 6,CONNECTOR:SPLITTER,SHW LOOP RV2024_GASHOTWATER DEMAND SPLITTER,Outlet,1
 Non-Parent Node Connection,SHW LOOP RV2024_GASHOTWATER DEMAND BYPASS PIPE INLET NODE,CONNECTOR:SPLITTER,SHW LOOP RV2024_GASHOTWATER DEMAND SPLITTER,Outlet,1
 Non-Parent Node Connection,SHW LOOP RV2024_GASHOTWATER DEMAND OUTLET PIPE NODE,CONNECTOR:MIXER,SHW LOOP RV2024_GASHOTWATER DEMAND MIXER,Outlet,1
 Non-Parent Node Connection,NODE 9,CONNECTOR:MIXER,SHW LOOP RV2024_GASHOTWATER DEMAND MIXER,Inlet,1
 Non-Parent Node Connection,SHW LOOP RV2024_GASHOTWATER DEMAND BYPASS PIPE OUTLET NODE,CONNECTOR:MIXER,SHW LOOP RV2024_GASHOTWATER DEMAND MIXER,Inlet,1
 Non-Parent Node Connection,NODE 7,CONNECTOR:SPLITTER,SHW LOOP RV2024_GASHOTWATER SUPPLY SPLITTER,Inlet,1
 Non-Parent Node Connection,NODE 3,CONNECTOR:SPLITTER,SHW LOOP RV2024_GASHOTWATER SUPPLY SPLITTER,Outlet,1
 Non-Parent Node Connection,SHW LOOP RV2024_GASHOTWATER SUPPLY OUTLET PIPE NODE,CONNECTOR:MIXER,SHW LOOP RV2024_GASHOTWATER SUPPLY MIXER,Outlet,1
 Non-Parent Node Connection,NODE 8,CONNECTOR:MIXER,SHW LOOP RV2024_GASHOTWATER SUPPLY MIXER,Inlet,1
 Non-Parent Node Connection,WHOLEHOUSE_879BD36E PTAC HEATING COIL OUTLET NODE,FAN:ONOFF,WHOLEHOUSE_879BD36E PTAC FAN,Inlet,1
 Non-Parent Node Connection,WHOLEHOUSE_879BD36E PTAC OUTLET AIR NODE,FAN:ONOFF,WHOLEHOUSE_879BD36E PTAC FAN,Outlet,1
 Non-Parent Node Connection,HOT WATER LOOP WATER HTG COIL INLET WATER NODE,COIL:HEATING:WATER,HOT WATER LOOP WATER HTG COIL,Inlet,2
 Non-Parent Node Connection,HOT WATER LOOP WATER HTG COIL OUTLET WATER NODE,COIL:HEATING:WATER,HOT WATER LOOP WATER HTG COIL,Outlet,2
 Non-Parent Node Connection,WHOLEHOUSE_879BD36E PTAC COOLING COIL OUTLET NODE,COIL:HEATING:WATER,HOT WATER LOOP WATER HTG COIL,Inlet,1
 Non-Parent Node Connection,WHOLEHOUSE_879BD36E PTAC HEATING COIL OUTLET NODE,COIL:HEATING:WATER,HOT WATER LOOP WATER HTG COIL,Outlet,1
 Non-Parent Node Connection,WHOLEHOUSE_879BD36E PTAC MIXED AIR NODE,COIL:COOLING:DX:SINGLESPEED,WHOLEHOUSE_879BD36E PTAC 1SPD DX AC CLG COIL,Inlet,1
 Non-Parent Node Connection,WHOLEHOUSE_879BD36E PTAC COOLING COIL OUTLET NODE,COIL:COOLING:DX:SINGLESPEED,WHOLEHOUSE_879BD36E PTAC 1SPD DX AC CLG COIL,Outlet,1
 Non-Parent Node Connection,HOT WATER LOOP SUPPLY INLET NODE,PUMP:VARIABLESPEED,HOT WATER LOOP PUMP,Inlet,1
 Non-Parent Node Connection,HOT WATER LOOP PUMP OUTLET WATER NODE,PUMP:VARIABLESPEED,HOT WATER LOOP PUMP,Outlet,1
 Non-Parent Node Connection,NODE 1,PUMP:CONSTANTSPEED,SHW PUMP1,Inlet,1
 Non-Parent Node Connection,NODE 7,PUMP:CONSTANTSPEED,SHW PUMP1,Outlet,1
