Program Version,EnergyPlus, Version 23.2.0-7636e6b3e9, YMD=2024.11.11 12:04
! <Version>, Version ID
 Version, 23.2
! <Timesteps per Hour>, #TimeSteps, Minutes per TimeStep {minutes}
 Timesteps per Hour,  4, 15
! <System Convergence Limits>, Minimum System TimeStep {minutes}, Max HVAC Iterations, Minimum Plant Iterations, Maximum Plant Iterations
 System Convergence Limits, 1, 20, 2, 8
! <Simulation Control>, Do Zone Sizing, Do System Sizing, Do Plant Sizing, Do Design Days, Do Weather Simulation, Do HVAC Sizing Simulation
 Simulation Control, Yes, Yes, Yes, No, Yes, No
! <Performance Precision Tradeoffs>, Use Coil Direct Simulation, Zone Radiant Exchange Algorithm, Override Mode, Number of Timestep In Hour, Force Euler Method, Minimum Number of Warmup Days, Force Suppress All Begin Environment Resets, Minimum System Timestep, MaxZoneTempDiff, MaxAllowedDelTemp
 Performance Precision Tradeoffs, No, ScriptF, Normal, 4, No, 1, No, 1.0, 0.300, 2.0000E-003
! <Output Reporting Tolerances>, Tolerance for Time Heating Setpoint Not Met, Tolerance for Zone Cooling Setpoint Not Met Time
 Output Reporting Tolerances, 1.110, 1.110, 
! <Site:GroundTemperature:BuildingSurface>,Jan{C},Feb{C},Mar{C},Apr{C},May{C},Jun{C},Jul{C},Aug{C},Sep{C},Oct{C},Nov{C},Dec{C}
 Site:GroundTemperature:BuildingSurface,  18.00,  18.00,  18.00,  18.00,  18.00,  18.00,  18.00,  18.00,  18.00,  18.00,  18.00,  18.00
! <Site:GroundTemperature:FCfactorMethod>,Jan{C},Feb{C},Mar{C},Apr{C},May{C},Jun{C},Jul{C},Aug{C},Sep{C},Oct{C},Nov{C},Dec{C}
 Site:GroundTemperature:FCfactorMethod,   6.02,   2.12,   1.06,   1.98,   7.24,  13.14,  18.69,  22.71,  23.88,  21.99,  17.45,  11.72
! <Site:GroundTemperature:Shallow>,Jan{C},Feb{C},Mar{C},Apr{C},May{C},Jun{C},Jul{C},Aug{C},Sep{C},Oct{C},Nov{C},Dec{C}
 Site:GroundTemperature:Shallow,  13.00,  13.00,  13.00,  13.00,  13.00,  13.00,  13.00,  13.00,  13.00,  13.00,  13.00,  13.00
! <Site:GroundTemperature:Deep>,Jan{C},Feb{C},Mar{C},Apr{C},May{C},Jun{C},Jul{C},Aug{C},Sep{C},Oct{C},Nov{C},Dec{C}
 Site:GroundTemperature:Deep,  16.00,  16.00,  16.00,  16.00,  16.00,  16.00,  16.00,  16.00,  16.00,  16.00,  16.00,  16.00
! <Site:GroundReflectance>,Jan{dimensionless},Feb{dimensionless},Mar{dimensionless},Apr{dimensionless},May{dimensionless},Jun{dimensionless},Jul{dimensionless},Aug{dimensionless},Sep{dimensionless},Oct{dimensionless},Nov{dimensionless},Dec{dimensionless}
 Site:GroundReflectance,  0.20,  0.20,  0.20,  0.20,  0.20,  0.20,  0.20,  0.20,  0.20,  0.20,  0.20,  0.20
! <Site:GroundReflectance:SnowModifier>, Normal, Daylighting {dimensionless}
 Site:GroundReflectance:SnowModifier,   1.000,   1.000
! <Site:GroundReflectance:Snow>,Jan{dimensionless},Feb{dimensionless},Mar{dimensionless},Apr{dimensionless},May{dimensionless},Jun{dimensionless},Jul{dimensionless},Aug{dimensionless},Sep{dimensionless},Oct{dimensionless},Nov{dimensionless},Dec{dimensionless}
 Site:GroundReflectance:Snow,  0.20,  0.20,  0.20,  0.20,  0.20,  0.20,  0.20,  0.20,  0.20,  0.20,  0.20,  0.20
! <Site:GroundReflectance:Snow:Daylighting>,Jan{dimensionless},Feb{dimensionless},Mar{dimensionless},Apr{dimensionless},May{dimensionless},Jun{dimensionless},Jul{dimensionless},Aug{dimensionless},Sep{dimensionless},Oct{dimensionless},Nov{dimensionless},Dec{dimensionless}
 Site:GroundReflectance:Snow:Daylighting,  0.20,  0.20,  0.20,  0.20,  0.20,  0.20,  0.20,  0.20,  0.20,  0.20,  0.20,  0.20
! <Environment:Weather Station>,Wind Sensor Height Above Ground {m},Wind Speed Profile Exponent {},Wind Speed Profile Boundary Layer Thickness {m},Air Temperature Sensor Height Above Ground {m},Wind Speed Modifier Coefficient-Internal,Temperature Modifier Coefficient-Internal
Environment:Weather Station,10.000,0.140,270.000,1.500,1.586,9.750E-003
! <Site:Location>, Location Name, Latitude {N+/S- Deg}, Longitude {E+/W- Deg},  Time Zone Number {GMT+/-}, Elevation {m},  Standard Pressure at Elevation {Pa}, Standard RhoAir at Elevation
Site:Location,New York J F Kennedy IntL Ar NY USA TMY3 WMO#=744860,40.65,-73.80,-5.00,5.00,101265,1.2036
! <Site Water Mains Temperature Information>,Calculation Method{},Water Mains Temperature Schedule Name{},Annual Average Outdoor Air Temperature{C},Maximum Difference In Monthly Average Outdoor Air Temperatures{deltaC},Fixed Default Water Mains Temperature{C}
Site Water Mains Temperature Information,FixedDefault,NA,NA,NA,10.0
! <Building Information>, Building Name,North Axis {deg},Terrain,  Loads Convergence Tolerance Value,Temperature Convergence Tolerance Value,  Solar Distribution,Maximum Number of Warmup Days,Minimum Number of Warmup Days
 Building Information,test_full_GUI_outputs_M_10W-20S_StateCollegePA_BASE_NV,0.000,City,4.00000E-002,0.40000,FullInteriorAndExterior,25,6
! <Inside Convection Algorithm>, Algorithm {Simple | TARP | CeilingDiffuser | AdaptiveConvectionAlgorithm}
Inside Convection Algorithm,TARP
! <Outside Convection Algorithm>, Algorithm {SimpleCombined | TARP | MoWitt | DOE-2 | AdaptiveConvectionAlgorithm}
Outside Convection Algorithm,DOE-2
! <Sky Radiance Distribution>, Value {Anisotropic}
Sky Radiance Distribution,Anisotropic
! <Zone Air Solution Algorithm>, Algorithm {ThirdOrderBackwardDifference | AnalyticalSolution | EulerMethod}, Space Heat Balance Sizing, Space Heat Balance Simulation
 Zone Air Solution Algorithm, ThirdOrderBackwardDifference, No, No
! <Zone Air Carbon Dioxide Balance Simulation>, Simulation {Yes/No}, Carbon Dioxide Concentration
 Zone Air Carbon Dioxide Balance Simulation, Yes,YES
! <Zone Air Generic Contaminant Balance Simulation>, Simulation {Yes/No}, Generic Contaminant Concentration
 Zone Air Generic Contaminant Balance Simulation, No,N/A
! <Zone Air Mass Flow Balance Simulation>, Enforce Mass Balance, Adjust Zone Mixing and Return {AdjustMixingOnly | AdjustReturnOnly | AdjustMixingThenReturn | AdjustReturnThenMixing | None}, Adjust Zone Infiltration {AddInfiltration | AdjustInfiltration | None}, Infiltration Zones {MixingSourceZonesOnly | AllZones}
 Zone Air Mass Flow Balance Simulation, No,N/A,N/A,N/A
! <HVACSystemRootFindingAlgorithm>, Value {RegulaFalsi | Bisection | BisectionThenRegulaFalsi | RegulaFalsiThenBisection}
 HVACSystemRootFindingAlgorithm, RegulaFalsi
! <Environment:Site Atmospheric Variation>,Wind Speed Profile Exponent {},Wind Speed Profile Boundary Layer Thickness {m},Air Temperature Gradient Coefficient {K/m}
Environment:Site Atmospheric Variation,0.330,460.000,6.500000E-003
! <Surface Geometry>,Starting Corner,Vertex Input Direction,Coordinate System,Daylight Reference Point Coordinate System,Rectangular (Simple) Surface Coordinate System
 Surface Geometry,UpperLeftCorner,Counterclockwise,RelativeCoordinateSystem,RelativeCoordinateSystem,RelativeToZoneOrigin
! <Surface Heat Transfer Algorithm>, Value {CTF - ConductionTransferFunction | EMPD - MoisturePenetrationDepthConductionTransferFunction | CondFD - ConductionFiniteDifference | HAMT - CombinedHeatAndMoistureFiniteElement} - Description,Inside Surface Max Temperature Limit{C}, Surface Convection Coefficient Lower Limit {W/m2-K}, Surface Convection Coefficient Upper Limit {W/m2-K}
Surface Heat Transfer Algorithm, CTF - ConductionTransferFunction,200,0.10,1000.0
Surface Heat Transfer Algorithm, KivaFoundation - TwoDimensionalFiniteDifference,200,0.10,1000.0
! <Shading Summary>, Number of Fixed Detached Shades, Number of Building Detached Shades, Number of Attached Shades
 Shading Summary,0,22,0
! <Zone Summary>, Number of Zones, Number of Zone Surfaces, Number of SubSurfaces
 Zone Summary,1,42,16
! <Zone Information>,Zone Name,North Axis {deg},Origin X-Coordinate {m},Origin Y-Coordinate {m},Origin Z-Coordinate {m},Centroid X-Coordinate {m},Centroid Y-Coordinate {m},Centroid Z-Coordinate {m},Type,Zone Multiplier,Zone List Multiplier,Minimum X {m},Maximum X {m},Minimum Y {m},Maximum Y {m},Minimum Z {m},Maximum Z {m},Ceiling Height {m},Volume {m3},Zone Inside Convection Algorithm {Simple-Detailed-CeilingDiffuser-TrombeWall},Zone Outside Convection Algorithm {Simple-Detailed-Tarp-MoWitt-DOE-2-BLAST}, Floor Area {m2},Exterior Gross Wall Area {m2},Exterior Net Wall Area {m2},Exterior Window Area {m2}, Number of Surfaces, Number of SubSurfaces, Number of Shading SubSurfaces,  Part of Total Building Area
 Zone Information, WHOLEHOUSE,0.0,0.00,0.00,0.00,8.04,4.95,1.09,1,1,1,-1.00E-012,16.69,-0.36,11.67,-2.20,4.31,4.95,10.00,TARP,DOE-2,164.11,191.09,171.59,19.50,24,16,0,Yes
! <Zone Internal Gains Nominal>,Zone Name, Floor Area {m2},# Occupants,Area per Occupant {m2/person},Occupant per Area {person/m2},Interior Lighting {W/m2},Electric Load {W/m2},Gas Load {W/m2},Other Load {W/m2},Hot Water Eq {W/m2},Steam Equipment {W/m2},Sum Loads per Area {W/m2},Outdoor Controlled Baseboard Heat
 Zone Internal Gains Nominal, WHOLEHOUSE,164.11,6.0,27.352,3.656E-002,16.858,76.615,0.000,3.047E-003,0.000,0.000,93.477,No
! <People Internal Gains Nominal>,Name,Schedule Name,Zone Name,Zone Floor Area {m2},# Zone Occupants,Number of People {},People/Floor Area {person/m2},Floor Area per person {m2/person},Fraction Radiant,Fraction Convected,Sensible Fraction Calculation,Activity level,ASHRAE 55 Warnings,Carbon Dioxide Generation Rate,Nominal Minimum Number of People,Nominal Maximum Number of People,MRT Calculation Type,Work Efficiency, Clothing Insulation Calculation Method,Clothing Insulation Calculation Method Schedule,Clothing,Air Velocity,Fanger Calculation,Pierce Calculation,KSU Calculation,Cooling Effect Calculation,Ankle Draft Calculation
 People Internal Gains Nominal, WHOLEHOUSE OCCUPANTS,OCCUPANTSCHEDULE,WHOLEHOUSE,164.11,6.0,6.0,3.656E-002,27.352,0.300,0.700,AutoCalculate,OCCUPANT_ACTIVITY_SCHEDULE,No,3.8200E-008,0,6,Zone Averaged,OCCUPANT_EFF_SCHEDULE,Clothing Insulation Schedule,N/A,OCCUPANT_CLOTHING_SCHEDULE,AIRVELOCITYSCH,No,Yes,No,No,No
! <Lights Internal Gains Nominal>,Name,Schedule Name,Zone Name,Zone Floor Area {m2},# Zone Occupants,Lighting Level {W},Lights/Floor Area {W/m2},Lights per person {W/person},Fraction Return Air,Fraction Radiant,Fraction Short Wave,Fraction Convected,Fraction Replaceable,End-Use Category,Nominal Minimum Lighting Level {W},Nominal Maximum Lighting Level {W}
 Lights Internal Gains Nominal, WHOLEHOUSE PHIUSLIGHTS,PHIUS_LIGHTING,WHOLEHOUSE,164.11,6.0,2766.638,16.858,461.106,0.000,0.600,0.200,0.200,1.000,InteriorLights,0.000,354.130
! <ElectricEquipment Internal Gains Nominal>,Name,Schedule Name,Zone Name,Zone Floor Area {m2},# Zone Occupants,Equipment Level {W},Equipment/Floor Area {W/m2},Equipment per person {W/person},Fraction Latent,Fraction Radiant,Fraction Lost,Fraction Convected,End-Use SubCategory,Nominal Minimum Equipment Level {W},Nominal Maximum Equipment Level {W}
 ElectricEquipment Internal Gains Nominal, WHOLEHOUSE PHIUSMELS,PHIUS_MELS,WHOLEHOUSE,164.11,6.0,5184.621,31.592,864.104,0.000,0.000,0.000,1.000,MELs,0.000,663.632
 ElectricEquipment Internal Gains Nominal, WHOLEHOUSE FRIDGE,ALWAYS_ON,WHOLEHOUSE,164.11,6.0,41.096,0.250,6.849,0.000,1.000,0.000,0.000,Fridge,41.096,41.096
 ElectricEquipment Internal Gains Nominal, WHOLEHOUSE RANGE,BARANGESCHEDULE,WHOLEHOUSE,164.11,6.0,1441.096,8.781,240.183,0.300,0.400,0.000,0.300,Range,0.000,216.164
 ElectricEquipment Internal Gains Nominal, WHOLEHOUSE CLOTHESDRYER,BACLOTHESDRYERSCHEDULE,WHOLEHOUSE,164.11,6.0,3932.373,23.962,655.395,5.000E-002,0.150,0.000,0.800,ClothesDryer,0.000,318.522
 ElectricEquipment Internal Gains Nominal, WHOLEHOUSE CLOTHESWASHER,BACLOTHESWASHERSCHEDULE,WHOLEHOUSE,164.11,6.0,438.356,2.671,73.059,0.000,0.800,0.000,0.200,ClothesWasher,0.000,37.699
 ElectricEquipment Internal Gains Nominal, WHOLEHOUSE DISHWASHER,BADISHWASHERSCHEDULE,WHOLEHOUSE,164.11,6.0,778.623,4.745,129.771,0.150,0.600,0.000,0.250,Dishwasher,0.000,86.427
 ElectricEquipment Internal Gains Nominal, WHOLEHOUSE SIZINGSENSIBLE,SIZINGLOADS,WHOLEHOUSE,164.11,6.0,629.042,3.833,104.840,0.000,0.000,0.000,1.000,General,0.000,629.042
 ElectricEquipment Internal Gains Nominal, WHOLEHOUSE SIZINGLATENT,SIZINGLOADS,WHOLEHOUSE,164.11,6.0,128.104,0.781,21.351,1.000,0.000,0.000,0.000,General,0.000,128.104
! <OtherEquipment Internal Gains Nominal>,Name,Schedule Name,Zone Name,Zone Floor Area {m2},# Zone Occupants,Equipment Level {W},Equipment/Floor Area {W/m2},Equipment per person {W/person},Fraction Latent,Fraction Radiant,Fraction Lost,Fraction Convected,Nominal Minimum Equipment Level {W},Nominal Maximum Equipment Level {W}
 OtherEquipment Internal Gains Nominal, WHOLEHOUSE TB,WHOLEHOUSE_TB SCHEDULE,WHOLEHOUSE,164.11,6.0,0.500,3.047E-003,8.333E-002,0.000,0.000,0.000,1.000,0.000,0.000
! <Zone Volume Capacitance Multiplier>, Sensible Heat Capacity Multiplier, Moisture Capacity Multiplier, Carbon Dioxide Capacity Multiplier, Generic Contaminant Capacity Multiplier
Zone Volume Capacitance Multiplier,   1.000 ,   1.000,   1.000,   1.000
! <Kiva Foundation Name>, Horizontal Cells, Vertical Cells, Total Cells, Total Exposed Perimeter, Perimeter Fraction, Wall Height, Wall Construction, Floor Surface, Wall Surface(s)
SLAB DETAILS,40,20,800,12.19,1.00,0.00,<Default Footing Wall Construction>,SLAB
BASEMENT DETAILS,38,41,1558,40.61,0.20,1.91,UNINSULATED STEM WALL,BASEMENT,45825F
BASEMENT DETAILS,38,42,1596,40.61,0.80,2.20,UNINSULATED STEM WALL,BASEMENT,568FE7,64DDB4,1312C0
CRAWLSPACE DETAILS,39,21,819,19.81,1.00,0.00,<Default Footing Wall Construction>,CRAWLSPACE
! <Shadowing/Sun Position Calculations Annual Simulations>, Shading Calculation Method, Shading Calculation Update Frequency Method, Shading Calculation Update Frequency {days}, Maximum Figures in Shadow Overlap Calculations {}, Polygon Clipping Algorithm, Pixel Counting Resolution, Sky Diffuse Modeling Algorithm, Output External Shading Calculation Results, Disable Self-Shading Within Shading Zone Groups, Disable Self-Shading From Shading Zone Groups to Other Zones
Shadowing/Sun Position Calculations Annual Simulations,PolygonClipping,Periodic,20,15000,SutherlandHodgman,512,SimpleSkyDiffuseModeling,No,No,No
! <Water Heater Information>,Type,Name,Volume {m3},Maximum Capacity {W},Standard Rated Recovery Efficiency, Standard Rated Energy Factor
! <ZoneInfiltration Airflow Stats Nominal>,Name,Schedule Name,Zone Name, Zone Floor Area {m2}, # Zone Occupants,Design Volume Flow Rate {m3/s},Volume Flow Rate/Floor Area {m3/s-m2},Volume Flow Rate/Exterior Surface Area {m3/s-m2},ACH - Air Changes per Hour,Equation A - Constant Term Coefficient {},Equation B - Temperature Term Coefficient {1/C},Equation C - Velocity Term Coefficient {s/m}, Equation D - Velocity Squared Term Coefficient {s2/m2}
 ZoneInfiltration Airflow Stats Nominal, WHOLEHOUSE INFILTRATION,ALWAYS_ON,WHOLEHOUSE,164.11,6.0,9.635E-002,5.871E-004,2.644E-004,34.686,0.000,1.500E-002,0.224,0.000
! <ZoneVentilation Airflow Stats Nominal>,Name,Schedule Name,Zone Name, Zone Floor Area {m2}, # Zone Occupants,Design Volume Flow Rate {m3/s},Volume Flow Rate/Floor Area {m3/s-m2},Volume Flow Rate/person Area {m3/s-person},ACH - Air Changes per Hour,Fan Type {Exhaust;Intake;Natural},Fan Pressure Rise {Pa},Fan Efficiency {},Equation A - Constant Term Coefficient {},Equation B - Temperature Term Coefficient {1/C},Equation C - Velocity Term Coefficient {s/m}, Equation D - Velocity Squared Term Coefficient {s2/m2},Minimum Indoor Temperature{C}/Schedule,Maximum Indoor Temperature{C}/Schedule,Delta Temperature{C}/Schedule,Minimum Outdoor Temperature{C}/Schedule,Maximum Outdoor Temperature{C}/Schedule,Maximum WindSpeed{m/s}
 ZoneVentilation Airflow Stats Nominal, WHOLEHOUSE_OPERABLEWINDOWS-N,Constant-0.0,WHOLEHOUSE,164.11,6.0,0.000,0.000,0.000,0.000,Natural,0.000,0.0,0.000,0.000,0.000,0.000,15.00,100.00,-100.00,-100.00,100.00,10.00
 ZoneVentilation Airflow Stats Nominal, WHOLEHOUSE_OPERABLEWINDOWS-E,Constant-0.0,WHOLEHOUSE,164.11,6.0,0.000,0.000,0.000,0.000,Natural,0.000,0.0,0.000,0.000,0.000,0.000,15.00,100.00,-100.00,-100.00,100.00,10.00
 ZoneVentilation Airflow Stats Nominal, WHOLEHOUSE_OPERABLEWINDOWS-S,Constant-0.0,WHOLEHOUSE,164.11,6.0,0.000,0.000,0.000,0.000,Natural,0.000,0.0,0.000,0.000,0.000,0.000,15.00,100.00,-100.00,-100.00,100.00,10.00
 ZoneVentilation Airflow Stats Nominal, WHOLEHOUSE_OPERABLEWINDOWS-W,Constant-0.0,WHOLEHOUSE,164.11,6.0,0.000,0.000,0.000,0.000,Natural,0.000,0.0,0.000,0.000,0.000,0.000,15.00,100.00,-100.00,-100.00,100.00,10.00
! <AirFlow Model>, Simple
 AirFlow Model, Simple
! <RoomAir Model>, Zone Name, Mixing/Mundt/UCSDDV/UCSDCV/UCSDUFI/UCSDUFE/User Defined
RoomAir Model,WHOLEHOUSE,Mixing/Well-Stirred
! <AirflowNetwork Model:Control>, No Multizone or Distribution/Multizone with Distribution/Multizone without Distribution/Multizone with Distribution only during Fan Operation
AirflowNetwork Model:Control,NoMultizoneOrDistribution
! <Load Timesteps in Zone Design Calculation Averaging Window>, Value
 Load Timesteps in Zone Design Calculation Averaging Window,    4
! <Heating Sizing Factor Information>, Sizing Factor ID, Value
 Heating Sizing Factor Information, Global,   1.0000    
 Heating Sizing Factor Information, Zone WHOLEHOUSE,   2.0000    
! <Cooling Sizing Factor Information>, Sizing Factor ID, Value
 Cooling Sizing Factor Information, Global,   1.0000    
 Cooling Sizing Factor Information, Zone WHOLEHOUSE,   1.5000    
! <Zone Sizing Information>, Zone Name, Load Type, Calc Des Load {W}, User Des Load {W}, Calc Des Air Flow Rate {m3/s}, User Des Air Flow Rate {m3/s}, Design Day Name, Date/Time of Peak, Temperature at Peak {C}, Humidity Ratio at Peak {kgWater/kgDryAir}, Floor Area {m2}, # Occupants, Calc Outdoor Air Flow Rate {m3/s}, Calc DOAS Heat Addition Rate {W}
 Zone Sizing Information, WHOLEHOUSE, Cooling, 2496.35020, 3744.52530, 0.16679, 0.25019, ROCHESTER INTERNATIONAL ARPT ANN CLG .4% CONDNS DB=>MWB, 7/21 17:00:00, 29.71600, 1.53623E-002, 164.11000, 6.00000, 4.24800E-002, 0.00000
 Zone Sizing Information, WHOLEHOUSE, Heating, 16321.54730, 32643.09460, 0.44298, 0.88596, ROCHESTER INTERNATIONAL ARPT ANN HTG 99.6% CONDNS DB, 1/21 24:00:00, -26.20000, 3.61342E-004, 164.11000, 6.00000, 4.24800E-002, 0.00000
! <Component Sizing Information>, Component Type, Component Name, Input Field Description, Value
 Component Sizing Information, AirLoopHVAC:UnitarySystem, WHOLEHOUSE_GASHEAT_DXAC_FURNACE, Design Size Supply Air Flow Rate [m3/s], 0.88596
 Component Sizing Information, AirLoopHVAC:UnitarySystem, WHOLEHOUSE_GASHEAT_DXAC_FURNACE, User-Specified Supply Air Flow Rate [m3/s], 2.00000
 Component Sizing Information, AirLoopHVAC:UnitarySystem, WHOLEHOUSE_GASHEAT_DXAC_FURNACE, Design Size Heating Supply Air Flow Rate [m3/s], 0.88596
 Component Sizing Information, AirLoopHVAC:UnitarySystem, WHOLEHOUSE_GASHEAT_DXAC_FURNACE, Design Size Cooling Supply Air Flow Rate [m3/s], 0.88596
 Component Sizing Information, AirLoopHVAC:UnitarySystem, WHOLEHOUSE_GASHEAT_DXAC_FURNACE, User-Specified No Load Supply Air Flow Rate [m3/s], 0.00000
 Component Sizing Information, AirLoopHVAC:UnitarySystem, WHOLEHOUSE_GASHEAT_DXAC_FURNACE, Design Size Nominal Cooling Capacity [W], 20487.75506
 Component Sizing Information, AirLoopHVAC:UnitarySystem, WHOLEHOUSE_GASHEAT_DXAC_FURNACE, Design Size Nominal Heating Capacity [W], 32643.08474
 Component Sizing Information, AirLoopHVAC:UnitarySystem, WHOLEHOUSE_GASHEAT_DXAC_FURNACE, User-Specified Maximum Supply Air Temperature [C], 50.00000
 Component Sizing Information, Fan:OnOff, WHOLEHOUSEFURNACE_BLOWER, Design Size Maximum Flow Rate [m3/s], 0.88596
 Component Sizing Information, Fan:OnOff, WHOLEHOUSEFURNACE_BLOWER, User-Specified Maximum Flow Rate [m3/s], 2.00000
 Component Sizing Information, Coil:Cooling:DX:SingleSpeed, WHOLEHOUSEFURNACE_DXAC_COIL, Design Size Rated Air Flow Rate [m3/s], 0.88596
 Component Sizing Information, Coil:Cooling:DX:SingleSpeed, WHOLEHOUSEFURNACE_DXAC_COIL, Design Size Gross Rated Total Cooling Capacity [W], 20487.75506
 Component Sizing Information, Coil:Cooling:DX:SingleSpeed, WHOLEHOUSEFURNACE_DXAC_COIL, User-Specified Gross Rated Sensible Heat Ratio, 0.75000
! <DX Cooling Coil Standard Rating Information>, Component Type, Component Name, Standard Rating (Net) Cooling Capacity {W}, Standard Rated Net COP {W/W}, EER {Btu/W-h}, SEER User {Btu/W-h}, SEER Standard {Btu/W-h}, IEER {Btu/W-h}
 DX Cooling Coil Standard Rating Information, Coil:Cooling:DX:SingleSpeed, WHOLEHOUSEFURNACE_DXAC_COIL, 19799.4, 2.63, 8.99, 9.55, 9.03, 9.39
 DX Cooling Coil Standard Rating Information, Coil:Cooling:DX:SingleSpeed, WHOLEHOUSEFURNACE_DXAC_COIL, 19656.6, 2.57, 8.76, 9.30, 9.05,  
 Component Sizing Information, Coil:Heating:Fuel, WHOLEHOUSEFURNACE_HEATING_COIL, Design Size Nominal Capacity [W], 32643.08474
Water Heater Information,WaterHeater:Mixed,WHOLEHOUSE_ELECTRICWATERHEATER_50GAL,0.1892,11712.0,5.556,0.8027
! <Environment>,Environment Name,Environment Type, Start Date, End Date, Start DayOfWeek, Duration {#days}, Source:Start DayOfWeek,  Use Daylight Saving, Use Holidays, Apply Weekend Holiday Rule,  Use Rain Values, Use Snow Values, Sky Temperature Model
! <Environment:Special Days>, Special Day Name, Special Day Type, Source, Start Date, Duration {#days}
! <Environment:Daylight Saving>, Daylight Saving Indicator, Source, Start Date, End Date
! <Environment:WarmupDays>, NumberofWarmupDays
Environment,ANNUAL,WeatherFileRunPeriod,01/01/2017,12/31/2017,Sunday,365,Use RunPeriod Specified Day,Yes,Yes,No,Yes,Yes,Clark and Allen
Environment:Daylight Saving,No,
Environment:WarmupDays,  6
! <Warmup Convergence Information>,Zone Name,Environment Type/Name,Average Warmup Temperature Difference {deltaC},Std Dev Warmup Temperature Difference {deltaC},Max Temperature Pass/Fail Convergence,Min Temperature Pass/Fail Convergence,Average Warmup Load Difference {W},Std Dev Warmup Load Difference {W},Heating Load Pass/Fail Convergence,Cooling Load Pass/Fail Convergence
 Warmup Convergence Information,WHOLEHOUSE,RunPeriod: ANNUAL,2.3314683517E-015,2.2250671699E-015,Pass,Pass,1.4941831021E-002,1.3060822691E-002,Pass,Pass
! <Program Control Information:Threads/Parallel Sims>, Threading Supported,Maximum Number of Threads, Env Set Threads (OMP_NUM_THREADS), EP Env Set Threads (EP_OMP_NUM_THREADS), IDF Set Threads, Number of Threads Used (Interior Radiant Exchange), Number Nominal Surfaces, Number Parallel Sims
Program Control:Threads/Parallel Sims, No,1, N/A, N/A, N/A, N/A, N/A, N/A
End of Data
