Program Version,EnergyPlus, Version 23.2.0-7636e6b3e9, YMD=2024.11.11 12:49
! <Version>, Version ID
 Version, 23.2
! <Timesteps per Hour>, #TimeSteps, Minutes per TimeStep {minutes}
 Timesteps per Hour,  6, 10
! <System Convergence Limits>, Minimum System TimeStep {minutes}, Max HVAC Iterations, Minimum Plant Iterations, Maximum Plant Iterations
 System Convergence Limits, 1, 20, 2, 8
! <Simulation Control>, Do Zone Sizing, Do System Sizing, Do Plant Sizing, Do Design Days, Do Weather Simulation, Do HVAC Sizing Simulation
 Simulation Control, Yes, Yes, Yes, No, Yes, No
! <Performance Precision Tradeoffs>, Use Coil Direct Simulation, Zone Radiant Exchange Algorithm, Override Mode, Number of Timestep In Hour, Force Euler Method, Minimum Number of Warmup Days, Force Suppress All Begin Environment Resets, Minimum System Timestep, MaxZoneTempDiff, MaxAllowedDelTemp
 Performance Precision Tradeoffs, No, ScriptF, Normal, 6, No, 1, No, 1.0, 0.300, 2.0000E-003
! <Output Reporting Tolerances>, Tolerance for Time Heating Setpoint Not Met, Tolerance for Zone Cooling Setpoint Not Met Time
 Output Reporting Tolerances, 1.110, 1.110, 
! <Site:GroundTemperature:BuildingSurface>,Jan{C},Feb{C},Mar{C},Apr{C},May{C},Jun{C},Jul{C},Aug{C},Sep{C},Oct{C},Nov{C},Dec{C}
 Site:GroundTemperature:BuildingSurface,  18.00,  18.00,  18.00,  18.00,  18.00,  18.00,  18.00,  18.00,  18.00,  18.00,  18.00,  18.00
! <Site:GroundTemperature:FCfactorMethod>,Jan{C},Feb{C},Mar{C},Apr{C},May{C},Jun{C},Jul{C},Aug{C},Sep{C},Oct{C},Nov{C},Dec{C}
 Site:GroundTemperature:FCfactorMethod,   6.02,   2.12,   1.06,   1.98,   7.24,  13.14,  18.69,  22.71,  23.88,  21.99,  17.45,  11.72
! <Site:GroundTemperature:Shallow>,Jan{C},Feb{C},Mar{C},Apr{C},May{C},Jun{C},Jul{C},Aug{C},Sep{C},Oct{C},Nov{C},Dec{C}
 Site:GroundTemperature:Shallow,  13.00,  13.00,  13.00,  13.00,  13.00,  13.00,  13.00,  13.00,  13.00,  13.00,  13.00,  13.00
! <Site:GroundTemperature:Deep>,Jan{C},Feb{C},Mar{C},Apr{C},May{C},Jun{C},Jul{C},Aug{C},Sep{C},Oct{C},Nov{C},Dec{C}
 Site:GroundTemperature:Deep,  16.00,  16.00,  16.00,  16.00,  16.00,  16.00,  16.00,  16.00,  16.00,  16.00,  16.00,  16.00
! <Site:GroundReflectance>,Jan{dimensionless},Feb{dimensionless},Mar{dimensionless},Apr{dimensionless},May{dimensionless},Jun{dimensionless},Jul{dimensionless},Aug{dimensionless},Sep{dimensionless},Oct{dimensionless},Nov{dimensionless},Dec{dimensionless}
 Site:GroundReflectance,  0.20,  0.20,  0.20,  0.20,  0.20,  0.20,  0.20,  0.20,  0.20,  0.20,  0.20,  0.20
! <Site:GroundReflectance:SnowModifier>, Normal, Daylighting {dimensionless}
 Site:GroundReflectance:SnowModifier,   1.000,   1.000
! <Site:GroundReflectance:Snow>,Jan{dimensionless},Feb{dimensionless},Mar{dimensionless},Apr{dimensionless},May{dimensionless},Jun{dimensionless},Jul{dimensionless},Aug{dimensionless},Sep{dimensionless},Oct{dimensionless},Nov{dimensionless},Dec{dimensionless}
 Site:GroundReflectance:Snow,  0.20,  0.20,  0.20,  0.20,  0.20,  0.20,  0.20,  0.20,  0.20,  0.20,  0.20,  0.20
! <Site:GroundReflectance:Snow:Daylighting>,Jan{dimensionless},Feb{dimensionless},Mar{dimensionless},Apr{dimensionless},May{dimensionless},Jun{dimensionless},Jul{dimensionless},Aug{dimensionless},Sep{dimensionless},Oct{dimensionless},Nov{dimensionless},Dec{dimensionless}
 Site:GroundReflectance:Snow:Daylighting,  0.20,  0.20,  0.20,  0.20,  0.20,  0.20,  0.20,  0.20,  0.20,  0.20,  0.20,  0.20
! <Environment:Weather Station>,Wind Sensor Height Above Ground {m},Wind Speed Profile Exponent {},Wind Speed Profile Boundary Layer Thickness {m},Air Temperature Sensor Height Above Ground {m},Wind Speed Modifier Coefficient-Internal,Temperature Modifier Coefficient-Internal
Environment:Weather Station,10.000,0.140,270.000,1.500,1.586,9.750E-003
! <Site:Location>, Location Name, Latitude {N+/S- Deg}, Longitude {E+/W- Deg},  Time Zone Number {GMT+/-}, Elevation {m},  Standard Pressure at Elevation {Pa}, Standard RhoAir at Elevation
Site:Location,New York J F Kennedy IntL Ar NY USA TMY3 WMO#=744860,40.65,-73.80,-5.00,5.00,101265,1.2036
! <Site Water Mains Temperature Information>,Calculation Method{},Water Mains Temperature Schedule Name{},Annual Average Outdoor Air Temperature{C},Maximum Difference In Monthly Average Outdoor Air Temperatures{deltaC},Fixed Default Water Mains Temperature{C}
Site Water Mains Temperature Information,CorrelationFromWeatherFile,NA,12.55,25.22,NA
! <Building Information>, Building Name,North Axis {deg},Terrain,  Loads Convergence Tolerance Value,Temperature Convergence Tolerance Value,  Solar Distribution,Maximum Number of Warmup Days,Minimum Number of Warmup Days
 Building Information,hb_revive_ADORB_model,0.000,City,4.00000E-002,0.40000,FullExteriorWithReflectionsFromExteriorSurfaces,25,1
! <Inside Convection Algorithm>, Algorithm {Simple | TARP | CeilingDiffuser | AdaptiveConvectionAlgorithm}
Inside Convection Algorithm,TARP
! <Outside Convection Algorithm>, Algorithm {SimpleCombined | TARP | MoWitt | DOE-2 | AdaptiveConvectionAlgorithm}
Outside Convection Algorithm,DOE-2
! <Sky Radiance Distribution>, Value {Anisotropic}
Sky Radiance Distribution,Anisotropic
! <Zone Air Solution Algorithm>, Algorithm {ThirdOrderBackwardDifference | AnalyticalSolution | EulerMethod}, Space Heat Balance Sizing, Space Heat Balance Simulation
 Zone Air Solution Algorithm, ThirdOrderBackwardDifference, No, No
! <Zone Air Carbon Dioxide Balance Simulation>, Simulation {Yes/No}, Carbon Dioxide Concentration
 Zone Air Carbon Dioxide Balance Simulation, No,N/A
! <Zone Air Generic Contaminant Balance Simulation>, Simulation {Yes/No}, Generic Contaminant Concentration
 Zone Air Generic Contaminant Balance Simulation, No,N/A
! <Zone Air Mass Flow Balance Simulation>, Enforce Mass Balance, Adjust Zone Mixing and Return {AdjustMixingOnly | AdjustReturnOnly | AdjustMixingThenReturn | AdjustReturnThenMixing | None}, Adjust Zone Infiltration {AddInfiltration | AdjustInfiltration | None}, Infiltration Zones {MixingSourceZonesOnly | AllZones}
 Zone Air Mass Flow Balance Simulation, No,N/A,N/A,N/A
! <HVACSystemRootFindingAlgorithm>, Value {RegulaFalsi | Bisection | BisectionThenRegulaFalsi | RegulaFalsiThenBisection}
 HVACSystemRootFindingAlgorithm, RegulaFalsi
! <Environment:Site Atmospheric Variation>,Wind Speed Profile Exponent {},Wind Speed Profile Boundary Layer Thickness {m},Air Temperature Gradient Coefficient {K/m}
Environment:Site Atmospheric Variation,0.330,460.000,6.500000E-003
! <Surface Geometry>,Starting Corner,Vertex Input Direction,Coordinate System,Daylight Reference Point Coordinate System,Rectangular (Simple) Surface Coordinate System
 Surface Geometry,UpperLeftCorner,Counterclockwise,RelativeCoordinateSystem,RelativeCoordinateSystem,RelativeToZoneOrigin
! <ShadingProperty Reflectance>,Shading Surface Name,Shading Type,Diffuse Solar Reflectance, Diffuse Visible Reflectance,Surface Glazing Fraction,Surface Glazing Contruction
ShadingProperty Reflectance,SHADE_060AC412,Detached Shading:Building,0.20,0.20,0.00, N/A
ShadingProperty Reflectance,Mir-SHADE_060AC412,Detached Shading:Building,0.20,0.20,0.00, N/A
ShadingProperty Reflectance,SHADE_0EE59AD4,Detached Shading:Building,0.20,0.20,0.00, N/A
ShadingProperty Reflectance,Mir-SHADE_0EE59AD4,Detached Shading:Building,0.20,0.20,0.00, N/A
ShadingProperty Reflectance,SHADE_40878738,Detached Shading:Building,0.20,0.20,0.00, N/A
ShadingProperty Reflectance,Mir-SHADE_40878738,Detached Shading:Building,0.20,0.20,0.00, N/A
ShadingProperty Reflectance,SHADE_66D0B769,Detached Shading:Building,0.20,0.20,0.00, N/A
ShadingProperty Reflectance,Mir-SHADE_66D0B769,Detached Shading:Building,0.20,0.20,0.00, N/A
ShadingProperty Reflectance,SHADE_6CBA224F,Detached Shading:Building,0.20,0.20,0.00, N/A
ShadingProperty Reflectance,Mir-SHADE_6CBA224F,Detached Shading:Building,0.20,0.20,0.00, N/A
ShadingProperty Reflectance,SHADE_94F94873,Detached Shading:Building,0.20,0.20,0.00, N/A
ShadingProperty Reflectance,Mir-SHADE_94F94873,Detached Shading:Building,0.20,0.20,0.00, N/A
ShadingProperty Reflectance,SHADE_AB31C708,Detached Shading:Building,0.20,0.20,0.00, N/A
ShadingProperty Reflectance,Mir-SHADE_AB31C708,Detached Shading:Building,0.20,0.20,0.00, N/A
ShadingProperty Reflectance,SHADE_CB2F49E9,Detached Shading:Building,0.20,0.20,0.00, N/A
ShadingProperty Reflectance,Mir-SHADE_CB2F49E9,Detached Shading:Building,0.20,0.20,0.00, N/A
ShadingProperty Reflectance,SHADE_EBE392DE,Detached Shading:Building,0.20,0.20,0.00, N/A
ShadingProperty Reflectance,Mir-SHADE_EBE392DE,Detached Shading:Building,0.20,0.20,0.00, N/A
ShadingProperty Reflectance,SHADE_F823B8C2,Detached Shading:Building,0.20,0.20,0.00, N/A
ShadingProperty Reflectance,Mir-SHADE_F823B8C2,Detached Shading:Building,0.20,0.20,0.00, N/A
ShadingProperty Reflectance,SHADE_FD8158A0,Detached Shading:Building,0.20,0.20,0.00, N/A
ShadingProperty Reflectance,Mir-SHADE_FD8158A0,Detached Shading:Building,0.20,0.20,0.00, N/A
! <Surface Heat Transfer Algorithm>, Value {CTF - ConductionTransferFunction | EMPD - MoisturePenetrationDepthConductionTransferFunction | CondFD - ConductionFiniteDifference | HAMT - CombinedHeatAndMoistureFiniteElement} - Description,Inside Surface Max Temperature Limit{C}, Surface Convection Coefficient Lower Limit {W/m2-K}, Surface Convection Coefficient Upper Limit {W/m2-K}
Surface Heat Transfer Algorithm, CTF - ConductionTransferFunction,200,0.10,1000.0
Surface Heat Transfer Algorithm, KivaFoundation - TwoDimensionalFiniteDifference,200,0.10,1000.0
! <Shading Summary>, Number of Fixed Detached Shades, Number of Building Detached Shades, Number of Attached Shades
 Shading Summary,0,22,0
! <Zone Summary>, Number of Zones, Number of Zone Surfaces, Number of SubSurfaces
 Zone Summary,1,42,16
! <Zone Information>,Zone Name,North Axis {deg},Origin X-Coordinate {m},Origin Y-Coordinate {m},Origin Z-Coordinate {m},Centroid X-Coordinate {m},Centroid Y-Coordinate {m},Centroid Z-Coordinate {m},Type,Zone Multiplier,Zone List Multiplier,Minimum X {m},Maximum X {m},Minimum Y {m},Maximum Y {m},Minimum Z {m},Maximum Z {m},Ceiling Height {m},Volume {m3},Zone Inside Convection Algorithm {Simple-Detailed-CeilingDiffuser-TrombeWall},Zone Outside Convection Algorithm {Simple-Detailed-Tarp-MoWitt-DOE-2-BLAST}, Floor Area {m2},Exterior Gross Wall Area {m2},Exterior Net Wall Area {m2},Exterior Window Area {m2}, Number of Surfaces, Number of SubSurfaces, Number of Shading SubSurfaces,  Part of Total Building Area
 Zone Information, WHOLEHOUSE_879BD36E,0.0,0.00,0.00,0.00,7.89,4.98,1.12,1,1,1,-1.00E-012,16.69,-0.36,11.67,-2.20,4.31,6.50,820.33,TARP,DOE-2,164.11,187.84,168.34,19.50,24,16,0,Yes
! <Zone Internal Gains Nominal>,Zone Name, Floor Area {m2},# Occupants,Area per Occupant {m2/person},Occupant per Area {person/m2},Interior Lighting {W/m2},Electric Load {W/m2},Gas Load {W/m2},Other Load {W/m2},Hot Water Eq {W/m2},Steam Equipment {W/m2},Sum Loads per Area {W/m2},Outdoor Controlled Baseboard Heat
 Zone Internal Gains Nominal, WHOLEHOUSE_879BD36E,164.11,6.0,27.352,3.656E-002,16.858,11.531,0.000,9.652,0.000,0.000,38.041,No
! <People Internal Gains Nominal>,Name,Schedule Name,Zone Name,Zone Floor Area {m2},# Zone Occupants,Number of People {},People/Floor Area {person/m2},Floor Area per person {m2/person},Fraction Radiant,Fraction Convected,Sensible Fraction Calculation,Activity level,ASHRAE 55 Warnings,Carbon Dioxide Generation Rate,Nominal Minimum Number of People,Nominal Maximum Number of People
 People Internal Gains Nominal, WHOLEHOUSE_879BD36E_SPACE RV2024_RESIDENCE_PEOPLE,RV2024_OCCUPANT_PRESENCE,WHOLEHOUSE_879BD36E,164.11,6.0,6.0,3.656E-002,27.352,0.300,0.700,AutoCalculate,RV2024_OCCUPANT_ACTIVITY,No,3.8200E-008,1,6
! <Lights Internal Gains Nominal>,Name,Schedule Name,Zone Name,Zone Floor Area {m2},# Zone Occupants,Lighting Level {W},Lights/Floor Area {W/m2},Lights per person {W/person},Fraction Return Air,Fraction Radiant,Fraction Short Wave,Fraction Convected,Fraction Replaceable,End-Use Category,Nominal Minimum Lighting Level {W},Nominal Maximum Lighting Level {W}
 Lights Internal Gains Nominal, WHOLEHOUSE_879BD36E_SPACE RV2024_RESIDENCE_LIGHTING,RV2024_LIGHTING,WHOLEHOUSE_879BD36E,164.11,6.0,2766.638,16.858,461.106,0.000,0.600,0.200,0.200,1.000,General,22.133,354.130
! <ElectricEquipment Internal Gains Nominal>,Name,Schedule Name,Zone Name,Zone Floor Area {m2},# Zone Occupants,Equipment Level {W},Equipment/Floor Area {W/m2},Equipment per person {W/person},Fraction Latent,Fraction Radiant,Fraction Lost,Fraction Convected,End-Use SubCategory,Nominal Minimum Equipment Level {W},Nominal Maximum Equipment Level {W}
 ElectricEquipment Internal Gains Nominal, WHOLEHOUSE_879BD36E_SPACE RV2024_RESIDENCE_ELECTRICEQUIPMENT,RV2024_MEL,WHOLEHOUSE_879BD36E,164.11,6.0,1892.409,11.531,315.402,0.000,0.000,0.000,1.000,Electric Equipment,15.139,242.228
! <OtherEquipment Internal Gains Nominal>,Name,Schedule Name,Zone Name,Zone Floor Area {m2},# Zone Occupants,Equipment Level {W},Equipment/Floor Area {W/m2},Equipment per person {W/person},Fraction Latent,Fraction Radiant,Fraction Lost,Fraction Convected,Nominal Minimum Equipment Level {W},Nominal Maximum Equipment Level {W}
 OtherEquipment Internal Gains Nominal, CLOTHESDRYER_704W,RV2024_CLOTHESDRYER,WHOLEHOUSE_879BD36E,164.11,6.0,704.000,4.290,117.333,5.000E-002,0.150,0.000,0.800,1.408,57.024
 OtherEquipment Internal Gains Nominal, CLOTHESWASHER_160W,RV2024_CLOTHESWASHER,WHOLEHOUSE_879BD36E,164.11,6.0,160.000,0.975,26.667,0.000,0.800,0.000,0.200,0.640,13.760
 OtherEquipment Internal Gains Nominal, DISHWASHER_360W,RV2024_DISHWASHER,WHOLEHOUSE_879BD36E,164.11,6.0,360.000,2.194,60.000,0.150,0.600,0.000,0.250,1.080,39.960
 OtherEquipment Internal Gains Nominal, FRIDGE_360W,RV2024_REFRIGERATOR,WHOLEHOUSE_879BD36E,164.11,6.0,360.000,2.194,60.000,0.000,1.000,0.000,0.000,360.000,360.000
 OtherEquipment Internal Gains Nominal, RANGE_0W,CONSTANTSCHEDULE_1EB8496E,WHOLEHOUSE_879BD36E,164.11,6.0,0.000,0.000,0.000,0.300,0.400,0.000,0.300,0.000,0.000
! <Zone Volume Capacitance Multiplier>, Sensible Heat Capacity Multiplier, Moisture Capacity Multiplier, Carbon Dioxide Capacity Multiplier, Generic Contaminant Capacity Multiplier
Zone Volume Capacitance Multiplier,   1.000 ,   1.000,   1.000,   1.000
! <Kiva Foundation Name>, Horizontal Cells, Vertical Cells, Total Cells, Total Exposed Perimeter, Perimeter Fraction, Wall Height, Wall Construction, Floor Surface, Wall Surface(s)
BASEMENT DETAILS,38,41,1558,40.61,0.20,1.91,UNINSULATED STEM WALL,BASEMENT,45825F
BASEMENT DETAILS,38,42,1596,40.61,0.80,2.20,UNINSULATED STEM WALL,BASEMENT,1312C0,568FE7,64DDB4
CRAWLSPACE DETAILS,39,21,819,19.81,1.00,0.00,<Default Footing Wall Construction>,CRAWLSPACE
SLAB DETAILS,40,20,800,12.19,1.00,0.00,<Default Footing Wall Construction>,SLAB
! <Shadowing/Sun Position Calculations Annual Simulations>, Shading Calculation Method, Shading Calculation Update Frequency Method, Shading Calculation Update Frequency {days}, Maximum Figures in Shadow Overlap Calculations {}, Polygon Clipping Algorithm, Pixel Counting Resolution, Sky Diffuse Modeling Algorithm, Output External Shading Calculation Results, Disable Self-Shading Within Shading Zone Groups, Disable Self-Shading From Shading Zone Groups to Other Zones
Shadowing/Sun Position Calculations Annual Simulations,PolygonClipping,Periodic,30,15000,SutherlandHodgman,512,SimpleSkyDiffuseModeling,No,No,No
! <Water Heater Information>,Type,Name,Volume {m3},Maximum Capacity {W},Standard Rated Recovery Efficiency, Standard Rated Energy Factor
! <ZoneInfiltration Airflow Stats Nominal>,Name,Schedule Name,Zone Name, Zone Floor Area {m2}, # Zone Occupants,Design Volume Flow Rate {m3/s},Volume Flow Rate/Floor Area {m3/s-m2},Volume Flow Rate/Exterior Surface Area {m3/s-m2},ACH - Air Changes per Hour,Equation A - Constant Term Coefficient {},Equation B - Temperature Term Coefficient {1/C},Equation C - Velocity Term Coefficient {s/m}, Equation D - Velocity Squared Term Coefficient {s2/m2}
 ZoneInfiltration Airflow Stats Nominal, WHOLEHOUSE_879BD36E_SPACE RV2024_RESIDENCE_INFILTRATION,RV2024_INFILTRATION,WHOLEHOUSE_879BD36E,164.11,6.0,0.108,6.603E-004,3.000E-004,0.476,1.000,0.000,0.000,0.000
! <ZoneVentilation Airflow Stats Nominal>,Name,Schedule Name,Zone Name, Zone Floor Area {m2}, # Zone Occupants,Design Volume Flow Rate {m3/s},Volume Flow Rate/Floor Area {m3/s-m2},Volume Flow Rate/person Area {m3/s-person},ACH - Air Changes per Hour,Fan Type {Exhaust;Intake;Natural},Fan Pressure Rise {Pa},Fan Efficiency {},Equation A - Constant Term Coefficient {},Equation B - Temperature Term Coefficient {1/C},Equation C - Velocity Term Coefficient {s/m}, Equation D - Velocity Squared Term Coefficient {s2/m2},Minimum Indoor Temperature{C}/Schedule,Maximum Indoor Temperature{C}/Schedule,Delta Temperature{C}/Schedule,Minimum Outdoor Temperature{C}/Schedule,Maximum Outdoor Temperature{C}/Schedule,Maximum WindSpeed{m/s}
 ZoneVentilation Airflow Stats Nominal, 5ADD37_58D48385_OPENING,Constant-0.0,WHOLEHOUSE_879BD36E,164.11,6.0,0.000,0.000,0.000,0.000,Natural,0.000,0.0,0.000,0.000,0.000,0.000,-100.00,100.00,1.50,-100.00,100.00,40.00
 ZoneVentilation Airflow Stats Nominal, 5E21AF_5C512865_OPENING,Constant-0.0,WHOLEHOUSE_879BD36E,164.11,6.0,0.000,0.000,0.000,0.000,Natural,0.000,0.0,0.000,0.000,0.000,0.000,-100.00,100.00,1.50,-100.00,100.00,40.00
 ZoneVentilation Airflow Stats Nominal, 8F337D_85EBCFD3_OPENING,Constant-0.0,WHOLEHOUSE_879BD36E,164.11,6.0,0.000,0.000,0.000,0.000,Natural,0.000,0.0,0.000,0.000,0.000,0.000,-100.00,100.00,1.50,-100.00,100.00,40.00
 ZoneVentilation Airflow Stats Nominal, A1BFE5_8DACD6D3_OPENING,Constant-0.0,WHOLEHOUSE_879BD36E,164.11,6.0,0.000,0.000,0.000,0.000,Natural,0.000,0.0,0.000,0.000,0.000,0.000,-100.00,100.00,1.50,-100.00,100.00,40.00
 ZoneVentilation Airflow Stats Nominal, 6B6F7B_7554AEED_OPENING,Constant-0.0,WHOLEHOUSE_879BD36E,164.11,6.0,0.000,0.000,0.000,0.000,Natural,0.000,0.0,0.000,0.000,0.000,0.000,-100.00,100.00,1.50,-100.00,100.00,40.00
 ZoneVentilation Airflow Stats Nominal, 9BA2B9_7786BC7A_OPENING,Constant-0.0,WHOLEHOUSE_879BD36E,164.11,6.0,0.000,0.000,0.000,0.000,Natural,0.000,0.0,0.000,0.000,0.000,0.000,-100.00,100.00,1.50,-100.00,100.00,40.00
 ZoneVentilation Airflow Stats Nominal, 52F9CB_4CFE0036_OPENING,Constant-0.0,WHOLEHOUSE_879BD36E,164.11,6.0,0.000,0.000,0.000,0.000,Natural,0.000,0.0,0.000,0.000,0.000,0.000,-100.00,100.00,1.50,-100.00,100.00,40.00
 ZoneVentilation Airflow Stats Nominal, 507101_3D48BD73_OPENING,Constant-0.0,WHOLEHOUSE_879BD36E,164.11,6.0,0.000,0.000,0.000,0.000,Natural,0.000,0.0,0.000,0.000,0.000,0.000,-100.00,100.00,1.50,-100.00,100.00,40.00
 ZoneVentilation Airflow Stats Nominal, 1A39E1_98DAAFE0_OPENING,Constant-0.0,WHOLEHOUSE_879BD36E,164.11,6.0,0.000,0.000,0.000,0.000,Natural,0.000,0.0,0.000,0.000,0.000,0.000,-100.00,100.00,1.50,-100.00,100.00,40.00
 ZoneVentilation Airflow Stats Nominal, 847485_13FAF266_OPENING,Constant-0.0,WHOLEHOUSE_879BD36E,164.11,6.0,0.000,0.000,0.000,0.000,Natural,0.000,0.0,0.000,0.000,0.000,0.000,-100.00,100.00,1.50,-100.00,100.00,40.00
 ZoneVentilation Airflow Stats Nominal, 4F420B_35653AD5_OPENING,Constant-0.0,WHOLEHOUSE_879BD36E,164.11,6.0,0.000,0.000,0.000,0.000,Natural,0.000,0.0,0.000,0.000,0.000,0.000,-100.00,100.00,1.50,-100.00,100.00,40.00
 ZoneVentilation Airflow Stats Nominal, DF0118_462D1D8E_OPENING,Constant-0.0,WHOLEHOUSE_879BD36E,164.11,6.0,0.000,0.000,0.000,0.000,Natural,0.000,0.0,0.000,0.000,0.000,0.000,-100.00,100.00,1.50,-100.00,100.00,40.00
 ZoneVentilation Airflow Stats Nominal, 8A81B2_54802B82_OPENING,Constant-0.0,WHOLEHOUSE_879BD36E,164.11,6.0,0.000,0.000,0.000,0.000,Natural,0.000,0.0,0.000,0.000,0.000,0.000,-100.00,100.00,1.50,-100.00,100.00,40.00
 ZoneVentilation Airflow Stats Nominal, DC8392_3B9532E8_OPENING,Constant-0.0,WHOLEHOUSE_879BD36E,164.11,6.0,0.000,0.000,0.000,0.000,Natural,0.000,0.0,0.000,0.000,0.000,0.000,-100.00,100.00,1.50,-100.00,100.00,40.00
 ZoneVentilation Airflow Stats Nominal, 4AF19B_0B4AA1DC_OPENING,Constant-0.0,WHOLEHOUSE_879BD36E,164.11,6.0,0.000,0.000,0.000,0.000,Natural,0.000,0.0,0.000,0.000,0.000,0.000,-100.00,100.00,1.50,-100.00,100.00,40.00
 ZoneVentilation Airflow Stats Nominal, 7314D3_FFE4AF26_OPENING,Constant-0.0,WHOLEHOUSE_879BD36E,164.11,6.0,0.000,0.000,0.000,0.000,Natural,0.000,0.0,0.000,0.000,0.000,0.000,-100.00,100.00,1.50,-100.00,100.00,40.00
! <AirFlow Model>, Simple
 AirFlow Model, Simple
! <RoomAir Model>, Zone Name, Mixing/Mundt/UCSDDV/UCSDCV/UCSDUFI/UCSDUFE/User Defined
RoomAir Model,WHOLEHOUSE_879BD36E,Mixing/Well-Stirred
! <AirflowNetwork Model:Control>, No Multizone or Distribution/Multizone with Distribution/Multizone without Distribution/Multizone with Distribution only during Fan Operation
AirflowNetwork Model:Control,NoMultizoneOrDistribution
! <Load Timesteps in Zone Design Calculation Averaging Window>, Value
 Load Timesteps in Zone Design Calculation Averaging Window,    6
! <Heating Sizing Factor Information>, Sizing Factor ID, Value
 Heating Sizing Factor Information, Global,   1.2500    
 Heating Sizing Factor Information, Zone WHOLEHOUSE_879BD36E,   1.2500    
! <Cooling Sizing Factor Information>, Sizing Factor ID, Value
 Cooling Sizing Factor Information, Global,   1.1500    
 Cooling Sizing Factor Information, Zone WHOLEHOUSE_879BD36E,   1.1500    
! <Zone Sizing Information>, Zone Name, Load Type, Calc Des Load {W}, User Des Load {W}, Calc Des Air Flow Rate {m3/s}, User Des Air Flow Rate {m3/s}, Design Day Name, Date/Time of Peak, Temperature at Peak {C}, Humidity Ratio at Peak {kgWater/kgDryAir}, Floor Area {m2}, # Occupants, Calc Outdoor Air Flow Rate {m3/s}, Calc DOAS Heat Addition Rate {W}
 Zone Sizing Information, WHOLEHOUSE_879BD36E, Cooling, 3393.65445, 3902.70262, 0.24892, 0.28626, NEW YORK J F KENNEDY INTL AR ANN CLG .4% CONDNS DB=>MWB, 7/21 17:30:00, 30.69400, 1.41128E-002, 164.11290, 6.00000, 5.09703E-002, 0.00000
 Zone Sizing Information, WHOLEHOUSE_879BD36E, Heating, 172397.46091, 215496.82614, 4.66704, 5.83380, NEW YORK J F KENNEDY INTL AR ANN HTG 99.6% CONDNS DB, 1/21 16:00:00, -10.70000, 1.50354E-003, 164.11290, 6.00000, 5.09703E-002, 0.00000
! <Component Sizing Information>, Component Type, Component Name, Input Field Description, Value
 Component Sizing Information, ZoneHVAC:PackagedTerminalAirConditioner, WHOLEHOUSE_879BD36E PTAC, Design Size Cooling Supply Air Flow Rate [m3/s], 5.83380
 Component Sizing Information, ZoneHVAC:PackagedTerminalAirConditioner, WHOLEHOUSE_879BD36E PTAC, Design Size Heating Supply Air Flow Rate [m3/s], 5.83380
 Component Sizing Information, ZoneHVAC:PackagedTerminalAirConditioner, WHOLEHOUSE_879BD36E PTAC, Design Size No Load Supply Air Flow Rate [m3/s], 5.83380
 Component Sizing Information, ZoneHVAC:PackagedTerminalAirConditioner, WHOLEHOUSE_879BD36E PTAC, Design Size Outdoor Air Flow Rate During Cooling Operation [m3/s], 5.09703E-002
 Component Sizing Information, ZoneHVAC:PackagedTerminalAirConditioner, WHOLEHOUSE_879BD36E PTAC, Design Size Outdoor Air Flow Rate During Heating Operation [m3/s], 5.09703E-002
 Component Sizing Information, ZoneHVAC:PackagedTerminalAirConditioner, WHOLEHOUSE_879BD36E PTAC, Design Size Outdoor Air Flow Rate When No Cooling or Heating is Needed [m3/s], 5.09703E-002
 Component Sizing Information, Coil:Heating:Water, HOT WATER LOOP WATER HTG COIL, Design Size Rated Capacity [W], 217411.16314
 Component Sizing Information, Coil:Heating:Water, HOT WATER LOOP WATER HTG COIL, Design Size Maximum Water Flow Rate [m3/s], 4.75540E-003
 Component Sizing Information, Coil:Heating:Water, HOT WATER LOOP WATER HTG COIL, Design Size U-Factor Times Area Value [W/K], 5507.71675
! <Water Heating Coil Capacity Information>,Component Type,Name,Nominal Total Capacity {W}
Water Heating Coil Capacity Information,Coil:Heating:Water,HOT WATER LOOP WATER HTG COIL,228397.63
 Component Sizing Information, Coil:Cooling:DX:SingleSpeed, WHOLEHOUSE_879BD36E PTAC 1SPD DX AC CLG COIL, Design Size Rated Air Flow Rate [m3/s], 5.83380
 Component Sizing Information, Coil:Cooling:DX:SingleSpeed, WHOLEHOUSE_879BD36E PTAC 1SPD DX AC CLG COIL, Design Size Gross Rated Total Cooling Capacity [W], 134579.73743
 Component Sizing Information, Coil:Cooling:DX:SingleSpeed, WHOLEHOUSE_879BD36E PTAC 1SPD DX AC CLG COIL, Design Size Gross Rated Sensible Heat Ratio, 0.72482
! <DX Cooling Coil Standard Rating Information>, Component Type, Component Name, Standard Rating (Net) Cooling Capacity {W}, Standard Rated Net COP {W/W}, EER {Btu/W-h}, SEER User {Btu/W-h}, SEER Standard {Btu/W-h}, IEER {Btu/W-h}
 DX Cooling Coil Standard Rating Information, Coil:Cooling:DX:SingleSpeed, WHOLEHOUSE_879BD36E PTAC 1SPD DX AC CLG COIL, 130046.8, 2.63, 8.99, 9.54, 9.03, 9.25
 DX Cooling Coil Standard Rating Information, Coil:Cooling:DX:SingleSpeed, WHOLEHOUSE_879BD36E PTAC 1SPD DX AC CLG COIL, 129107.0, 2.57, 8.76, 9.29, 9.04,  
 Component Sizing Information, Fan:OnOff, WHOLEHOUSE_879BD36E PTAC FAN, Design Size Maximum Flow Rate [m3/s], 5.83380
Water Heater Information,WaterHeater:Mixed,SHW WATERHEATER1,4.6075E-007,1000000.0,1790674.920,115.3159
 Component Sizing Information, PlantLoop, HOT WATER LOOP, Maximum Loop Flow Rate [m3/s], 4.75540E-003
 Component Sizing Information, PlantLoop, HOT WATER LOOP, Plant Loop Volume [m3], 0.57065
 Component Sizing Information, PlantLoop, HOT WATER LOOP, Design Supply Temperature [C], 82.22222
 Component Sizing Information, PlantLoop, HOT WATER LOOP, Design Return Temperature [C], 71.11111
 Component Sizing Information, PlantLoop, HOT WATER LOOP, Sizing option (Coincident/NonCoincident), 1.00000
 Component Sizing Information, Pump:VariableSpeed, HOT WATER LOOP PUMP, Design Flow Rate [m3/s], 4.75540E-003
 Component Sizing Information, Pump:VariableSpeed, HOT WATER LOOP PUMP, Design Power Consumption [W], 1214.88954
 Component Sizing Information, Boiler:HotWater, 90.1-2019 BOILER, Design Size Nominal Capacity [W], 217411.16314
 Component Sizing Information, Boiler:HotWater, 90.1-2019 BOILER, Design Size Design Water Flow Rate [m3/s], 4.75540E-003
 Component Sizing Information, PlantLoop, SHW LOOP RV2024_GASHOTWATER, Maximum Loop Flow Rate [m3/s], 0.00000
 Component Sizing Information, PlantLoop, SHW LOOP RV2024_GASHOTWATER, Plant Loop Volume [m3], 0.00000
 Component Sizing Information, PlantLoop, SHW LOOP RV2024_GASHOTWATER, Design Supply Temperature [C], 60.00000
 Component Sizing Information, PlantLoop, SHW LOOP RV2024_GASHOTWATER, Design Return Temperature [C], 55.00000
 Component Sizing Information, PlantLoop, SHW LOOP RV2024_GASHOTWATER, Sizing option (Coincident/NonCoincident), 1.00000
 Component Sizing Information, Pump:ConstantSpeed, SHW PUMP1, Design Flow Rate [m3/s], 0.00000
 Component Sizing Information, Pump:ConstantSpeed, SHW PUMP1, Design Power Consumption [W], 0.00000
 Component Sizing Information, WaterHeater:Mixed, SHW WATERHEATER1, Use Side Design Flow Rate [m3/s], 0.00000
! <Environment>,Environment Name,Environment Type, Start Date, End Date, Start DayOfWeek, Duration {#days}, Source:Start DayOfWeek,  Use Daylight Saving, Use Holidays, Apply Weekend Holiday Rule,  Use Rain Values, Use Snow Values, Sky Temperature Model
! <Environment:Special Days>, Special Day Name, Special Day Type, Source, Start Date, Duration {#days}
! <Environment:Daylight Saving>, Daylight Saving Indicator, Source, Start Date, End Date
! <Environment:WarmupDays>, NumberofWarmupDays
Environment,RUN PERIOD 1,WeatherFileRunPeriod,01/01/2006,12/31/2006,Sunday,365,Use RunPeriod Specified Day,No,No,No,Yes,Yes,Clark and Allen
Environment:Daylight Saving,No,RunPeriod Object
Environment:WarmupDays,  2
! <Warmup Convergence Information>,Zone Name,Environment Type/Name,Average Warmup Temperature Difference {deltaC},Std Dev Warmup Temperature Difference {deltaC},Max Temperature Pass/Fail Convergence,Min Temperature Pass/Fail Convergence,Average Warmup Load Difference {W},Std Dev Warmup Load Difference {W},Heating Load Pass/Fail Convergence,Cooling Load Pass/Fail Convergence
 Warmup Convergence Information,WHOLEHOUSE_879BD36E,RunPeriod: RUN PERIOD 1,6.2160716458E-004,8.0619202140E-004,Pass,Pass,9.8470384904E-003,1.2647963312E-002,Pass,Pass
! <Program Control Information:Threads/Parallel Sims>, Threading Supported,Maximum Number of Threads, Env Set Threads (OMP_NUM_THREADS), EP Env Set Threads (EP_OMP_NUM_THREADS), IDF Set Threads, Number of Threads Used (Interior Radiant Exchange), Number Nominal Surfaces, Number Parallel Sims
Program Control:Threads/Parallel Sims, No,1, N/A, N/A, N/A, N/A, N/A, N/A
End of Data
